/*---------------------------------------------------------------------------*\
  =========                 |
  \\      /  F ield         | OpenFOAM: The Open Source CFD Toolbox
   \\    /   O peration     | Website:  https://openfoam.org
    \\  /    A nd           | Version:  8
     \\/     M anipulation  |
\*---------------------------------------------------------------------------*/
/*   Windows 32 and 64 bit porting by blueCAPE: http://www.bluecape.com.pt   *\
|  Based on Windows porting (2.0.x v4) by Symscape: http://www.symscape.com   |
\*---------------------------------------------------------------------------*/
Build  : 8-53cd1468e263
Exec   : simpleFoam -parallel
Date   : Jul 31 2023
Time   : 13:29:49
Host   : "DESKTOP-35V4UQ0"
PID    : 23324
I/O    : uncollated
Case   : C:/Users/Flavio/Desktop/DiskActuator/Solver
nProcs : 8
Slaves : 
7
(
"DESKTOP-35V4UQ0.27744"
"DESKTOP-35V4UQ0.21736"
"DESKTOP-35V4UQ0.33684"
"DESKTOP-35V4UQ0.21492"
"DESKTOP-35V4UQ0.2036"
"DESKTOP-35V4UQ0.45792"
"DESKTOP-35V4UQ0.10916"
)

Pstream initialized with:
    floatTransfer      : 0
    nProcsSimpleSum    : 0
    commsType          : nonBlocking
    polling iterations : 0
SigFpe : Enabling floating point exception trapping (FOAM_SIGFPE).
fileModificationChecking : Monitoring run-time modified files using timeStampMaster (fileModificationSkew 10)
allowSystemOperations : Allowing user-supplied system call operations

// * * * * * * * * * * * * * * * * * * * * * * * * * * * * * * * * * * * * * //
Create time

Create mesh for time = 0


SIMPLE: Convergence criteria found
        p: tolerance 5e-05
        U: tolerance 1e-05
        "(k|omega|epsilon)": tolerance 1e-05

Reading field p

Reading field U

Reading/calculating face flux field phi

Selecting incompressible transport model Newtonian
Selecting turbulence model type RAS
Selecting RAS turbulence model kOmegaSST
Selecting patchDistMethod meshWave
RAS
{
    model           kOmegaSST;
    turbulence      on;
    printCoeffs     on;
    alphaK1         0.85;
    alphaK2         1;
    alphaOmega1     0.5;
    alphaOmega2     0.856;
    gamma1          0.555555555556;
    gamma2          0.44;
    beta1           0.075;
    beta2           0.0828;
    betaStar        0.09;
    a1              0.31;
    b1              1;
    c1              10;
    F3              false;
}

No MRF models present

Creating finite volume options from "constant/fvOptions"

Selecting finite volume options model type vectorCodedSource
    Source: tensorCodedSource
    - selecting all cells
    - selected 473100 cell(s) with volume 8000
Using dynamicCode for fvOption:: sourceForce at line 23 in "C:/Users/Flavio/Desktop/DiskActuator/Solver/constant/fvOptions/tensorCodedSource"
Creating new library in "dynamicCode/sourceForce/platforms/mingw_w64GccDPInt32Opt/lib/libsourceForce_f985073b6c4281ecb53d82cb1edb5d0e7d7bd1ae.so"
Invoking "wmake -s libso C:/Users/Flavio/Desktop/DiskActuator/Solver/dynamicCode/sourceForce"

C:\Users\Flavio\Desktop\DiskActuator\Solver>sh.exe -c "wmake -s libso C:/Users/Flavio/Desktop/DiskActuator/Solver/dynamicCode/sourceForce" 
wmake libso C:/Users/Flavio/Desktop/DiskActuator/Solver/dynamicCode/sourceForce
    ln: ./lnInclude
    wmkdep: codedFvOptionTemplate.C
    Ctoo: codedFvOptionTemplate.C
$(C:/PROGRA~1/BLUECF~1/OpenFOAM-8/wmake/scripts/makeReinterpretExePath windres) Make/mingw_w64GccDPInt32Opt/version_of_build.rc Make/mingw_w64GccDPInt32Opt/version_of_build.o
    ld: /c/Users/Flavio/Desktop/DiskActuator/Solver/dynamicCode/platforms/mingw_w64GccDPInt32Opt/lib/libsourceForce_f985073b6c4281ecb53d82cb1edb5d0e7d7bd1ae.dll
    cv2pdb: /c/Users/Flavio/Desktop/DiskActuator/Solver/dynamicCode/platforms/mingw_w64GccDPInt32Opt/lib/libsourceForce_f985073b6c4281ecb53d82cb1edb5d0e7d7bd1ae.dll
C:/Users/Flavio/Desktop/DiskActuator/Solver/dynamicCode/platforms/mingw_w64GccDPInt32Opt/lib/libsourceForce_f985073b6c4281ecb53d82cb1edb5d0e7d7bd1ae.pdb: cannot load PDB helper DLL
Error occurred with cv2pdb, have stripped binary as a workaround.

Starting time loop

Reading surface description:
    YZ_surf_x-9.0D
    YZ_surf_x-5.0D
    YZ_surf_x-1.0D
    YZ_surf_x0.0D
    YZ_surf_x0.5D
    YZ_surf_x1.0D
    YZ_surf_x1.5D
    YZ_surf_x2.0D
    YZ_surf_x2.5D
    YZ_surf_x3.0D
    YZ_surf_x3.5D
    YZ_surf_x4.0D
    YZ_surf_x4.5D
    YZ_surf_x5.0D
    YZ_surf_x7.5D
    YZ_surf_x10.0D
    YZ_surf_x12.5D
    YZ_surf_x15.0D
    YZ_surf_x17.5D
    YZ_surf_x20.0D
    XY_surf_wake

Reading set description:
    X_line_center

Time = 1

Selecting finite volume options model type sourceForce
    Source: sourceForce
    - selecting all cells
    - selected 473100 cell(s) with volume 8000
========== Flavio's Actuator Surface Model (2023) ==============
(scalar) Horizontal Force: 14.22224 N
(scalar) Vertical Force: 0 N
Momentum Source (Thrust, Vertical Force, Horizontal Force): (14.22224 0 0) N
================================================================
smoothSolver:  Solving for Ux, Initial residual = 1, Final residual = 0.0277326768269, No Iterations 2
smoothSolver:  Solving for Uy, Initial residual = 0.999999659318, Final residual = 0.0882848323587, No Iterations 1
smoothSolver:  Solving for Uz, Initial residual = 0.999999640487, Final residual = 0.0884263745661, No Iterations 1
GAMG:  Solving for p, Initial residual = 1, Final residual = 0.0590328773772, No Iterations 3
GAMG:  Solving for p, Initial residual = 0.015260917881, Final residual = 0.00108725176055, No Iterations 4
time step continuity errors : sum local = 3.47908110362e-06, global = -1.80421134556e-07, cumulative = -1.80421134556e-07
smoothSolver:  Solving for omega, Initial residual = 1, Final residual = 0.0323215212649, No Iterations 2
smoothSolver:  Solving for k, Initial residual = 1, Final residual = 0.0324412222462, No Iterations 2
ExecutionTime = 14.672 s  ClockTime = 14 s

Time = 2

========== Flavio's Actuator Surface Model (2023) ==============
(scalar) Horizontal Force: 14.22224 N
(scalar) Vertical Force: 0 N
Momentum Source (Thrust, Vertical Force, Horizontal Force): (14.22224 0 0) N
================================================================
smoothSolver:  Solving for Ux, Initial residual = 0.02059604575, Final residual = 0.00094956820749, No Iterations 2
smoothSolver:  Solving for Uy, Initial residual = 0.227660253747, Final residual = 0.0172294243022, No Iterations 2
smoothSolver:  Solving for Uz, Initial residual = 0.342229412599, Final residual = 0.0290175698253, No Iterations 2
GAMG:  Solving for p, Initial residual = 0.456215208876, Final residual = 0.0240521630089, No Iterations 3
GAMG:  Solving for p, Initial residual = 0.0106745455953, Final residual = 0.000735530946121, No Iterations 4
time step continuity errors : sum local = 4.61846010775e-06, global = -1.33023001007e-07, cumulative = -3.13444135563e-07
smoothSolver:  Solving for omega, Initial residual = 0.358517738324, Final residual = 0.0120429571076, No Iterations 2
smoothSolver:  Solving for k, Initial residual = 0.405215183132, Final residual = 0.013577990791, No Iterations 2
ExecutionTime = 15.092 s  ClockTime = 15 s

Time = 3

========== Flavio's Actuator Surface Model (2023) ==============
(scalar) Horizontal Force: 14.22224 N
(scalar) Vertical Force: 0 N
Momentum Source (Thrust, Vertical Force, Horizontal Force): (14.22224 0 0) N
================================================================
smoothSolver:  Solving for Ux, Initial residual = 0.0128828250377, Final residual = 0.000828461636823, No Iterations 2
smoothSolver:  Solving for Uy, Initial residual = 0.175108722844, Final residual = 0.0132356045432, No Iterations 2
smoothSolver:  Solving for Uz, Initial residual = 0.270928438198, Final residual = 0.0230230034287, No Iterations 2
GAMG:  Solving for p, Initial residual = 0.241206801015, Final residual = 0.0114945320411, No Iterations 3
GAMG:  Solving for p, Initial residual = 0.00854000198056, Final residual = 0.000740271405175, No Iterations 3
time step continuity errors : sum local = 5.69415518448e-06, global = -4.16646640807e-07, cumulative = -7.3009077637e-07
smoothSolver:  Solving for omega, Initial residual = 0.203919413106, Final residual = 0.00718860989549, No Iterations 2
smoothSolver:  Solving for k, Initial residual = 0.24583147525, Final residual = 0.00859199708786, No Iterations 2
ExecutionTime = 15.579 s  ClockTime = 15 s

Time = 4

========== Flavio's Actuator Surface Model (2023) ==============
(scalar) Horizontal Force: 14.22224 N
(scalar) Vertical Force: 0 N
Momentum Source (Thrust, Vertical Force, Horizontal Force): (14.22224 0 0) N
================================================================
smoothSolver:  Solving for Ux, Initial residual = 0.0110653126763, Final residual = 0.000775597341985, No Iterations 2
smoothSolver:  Solving for Uy, Initial residual = 0.138792102032, Final residual = 0.0106890669654, No Iterations 2
smoothSolver:  Solving for Uz, Initial residual = 0.216518877346, Final residual = 0.0185799956452, No Iterations 2
GAMG:  Solving for p, Initial residual = 0.157402157145, Final residual = 0.00613872550879, No Iterations 3
GAMG:  Solving for p, Initial residual = 0.00754721755311, Final residual = 0.000634255737347, No Iterations 3
time step continuity errors : sum local = 4.62293963724e-06, global = -1.89015012295e-07, cumulative = -9.19105788665e-07
smoothSolver:  Solving for omega, Initial residual = 0.139685412411, Final residual = 0.00511123069401, No Iterations 2
smoothSolver:  Solving for k, Initial residual = 0.171982117916, Final residual = 0.00623471817949, No Iterations 2
ExecutionTime = 15.994 s  ClockTime = 16 s

Time = 5

========== Flavio's Actuator Surface Model (2023) ==============
(scalar) Horizontal Force: 14.22224 N
(scalar) Vertical Force: 0 N
Momentum Source (Thrust, Vertical Force, Horizontal Force): (14.22224 0 0) N
================================================================
smoothSolver:  Solving for Ux, Initial residual = 0.0108297932297, Final residual = 0.000727993060059, No Iterations 2
smoothSolver:  Solving for Uy, Initial residual = 0.110962169577, Final residual = 0.0088566872679, No Iterations 2
smoothSolver:  Solving for Uz, Initial residual = 0.172591731522, Final residual = 0.0150853328382, No Iterations 2
GAMG:  Solving for p, Initial residual = 0.135311461656, Final residual = 0.0114980034055, No Iterations 2
GAMG:  Solving for p, Initial residual = 0.0139466608715, Final residual = 0.000722257735318, No Iterations 3
time step continuity errors : sum local = 4.25129259853e-06, global = 2.67611218274e-07, cumulative = -6.51494570391e-07
smoothSolver:  Solving for omega, Initial residual = 0.104933074426, Final residual = 0.00392125352678, No Iterations 2
smoothSolver:  Solving for k, Initial residual = 0.129303257598, Final residual = 0.00479729253478, No Iterations 2
ExecutionTime = 16.4 s  ClockTime = 16 s

Time = 6

========== Flavio's Actuator Surface Model (2023) ==============
(scalar) Horizontal Force: 14.22224 N
(scalar) Vertical Force: 0 N
Momentum Source (Thrust, Vertical Force, Horizontal Force): (14.22224 0 0) N
================================================================
smoothSolver:  Solving for Ux, Initial residual = 0.0101149935891, Final residual = 0.000681997604957, No Iterations 2
smoothSolver:  Solving for Uy, Initial residual = 0.089356591187, Final residual = 0.0073986716521, No Iterations 2
smoothSolver:  Solving for Uz, Initial residual = 0.136679271684, Final residual = 0.0121851383234, No Iterations 2
GAMG:  Solving for p, Initial residual = 0.13822625471, Final residual = 0.00935379249283, No Iterations 2
GAMG:  Solving for p, Initial residual = 0.0178976763457, Final residual = 0.000916003238531, No Iterations 3
time step continuity errors : sum local = 3.70961845236e-06, global = 9.01617280629e-08, cumulative = -5.61332842329e-07
smoothSolver:  Solving for omega, Initial residual = 0.0826346464714, Final residual = 0.00309942729893, No Iterations 2
smoothSolver:  Solving for k, Initial residual = 0.101745904031, Final residual = 0.00380004272503, No Iterations 2
ExecutionTime = 16.819 s  ClockTime = 16 s

Time = 7

========== Flavio's Actuator Surface Model (2023) ==============
(scalar) Horizontal Force: 14.22224 N
(scalar) Vertical Force: 0 N
Momentum Source (Thrust, Vertical Force, Horizontal Force): (14.22224 0 0) N
================================================================
smoothSolver:  Solving for Ux, Initial residual = 0.00896557906606, Final residual = 0.00062148425436, No Iterations 2
smoothSolver:  Solving for Uy, Initial residual = 0.072890905425, Final residual = 0.00616442011811, No Iterations 2
smoothSolver:  Solving for Uz, Initial residual = 0.10803449626, Final residual = 0.00975943053394, No Iterations 2
GAMG:  Solving for p, Initial residual = 0.155653207007, Final residual = 0.0102721830664, No Iterations 2
GAMG:  Solving for p, Initial residual = 0.01178485873, Final residual = 0.000703865357945, No Iterations 3
time step continuity errors : sum local = 4.28809107245e-06, global = 2.13769948678e-07, cumulative = -3.4756289365e-07
smoothSolver:  Solving for omega, Initial residual = 0.0669010142282, Final residual = 0.002474641037, No Iterations 2
smoothSolver:  Solving for k, Initial residual = 0.0825730650212, Final residual = 0.00304958135502, No Iterations 2
ExecutionTime = 17.224 s  ClockTime = 17 s

Time = 8

========== Flavio's Actuator Surface Model (2023) ==============
(scalar) Horizontal Force: 14.22224 N
(scalar) Vertical Force: 0 N
Momentum Source (Thrust, Vertical Force, Horizontal Force): (14.22224 0 0) N
================================================================
smoothSolver:  Solving for Ux, Initial residual = 0.00776699944093, Final residual = 0.00056391337889, No Iterations 2
smoothSolver:  Solving for Uy, Initial residual = 0.0606858519594, Final residual = 0.00522631596624, No Iterations 2
smoothSolver:  Solving for Uz, Initial residual = 0.0860109451275, Final residual = 0.00785080091628, No Iterations 2
GAMG:  Solving for p, Initial residual = 0.187839544365, Final residual = 0.0127008842066, No Iterations 2
GAMG:  Solving for p, Initial residual = 0.00853020536107, Final residual = 0.000595846905773, No Iterations 3
time step continuity errors : sum local = 4.91468648945e-06, global = 2.33581284881e-07, cumulative = -1.13981608769e-07
smoothSolver:  Solving for omega, Initial residual = 0.0552489284325, Final residual = 0.00198212634097, No Iterations 2
smoothSolver:  Solving for k, Initial residual = 0.0685324321856, Final residual = 0.0024603433931, No Iterations 2
ExecutionTime = 17.632 s  ClockTime = 17 s

Time = 9

========== Flavio's Actuator Surface Model (2023) ==============
(scalar) Horizontal Force: 14.22224 N
(scalar) Vertical Force: 0 N
Momentum Source (Thrust, Vertical Force, Horizontal Force): (14.22224 0 0) N
================================================================
smoothSolver:  Solving for Ux, Initial residual = 0.00684400755436, Final residual = 0.000512132561225, No Iterations 2
smoothSolver:  Solving for Uy, Initial residual = 0.0529765031055, Final residual = 0.00461956579007, No Iterations 2
smoothSolver:  Solving for Uz, Initial residual = 0.0703639522448, Final residual = 0.00648468210252, No Iterations 2
GAMG:  Solving for p, Initial residual = 0.146658743989, Final residual = 0.00952668863994, No Iterations 2
GAMG:  Solving for p, Initial residual = 0.00661201143223, Final residual = 0.000509318519429, No Iterations 3
time step continuity errors : sum local = 4.92399437454e-06, global = 1.91735197227e-07, cumulative = 7.77535884575e-08
smoothSolver:  Solving for omega, Initial residual = 0.0463802038507, Final residual = 0.00159158125269, No Iterations 2
smoothSolver:  Solving for k, Initial residual = 0.0578759004118, Final residual = 0.00199103173479, No Iterations 2
ExecutionTime = 18.04 s  ClockTime = 18 s

Time = 10

========== Flavio's Actuator Surface Model (2023) ==============
(scalar) Horizontal Force: 14.22224 N
(scalar) Vertical Force: 0 N
Momentum Source (Thrust, Vertical Force, Horizontal Force): (14.22224 0 0) N
================================================================
smoothSolver:  Solving for Ux, Initial residual = 0.00613188588339, Final residual = 0.000470518488236, No Iterations 2
smoothSolver:  Solving for Uy, Initial residual = 0.0493230361797, Final residual = 0.00434779001277, No Iterations 2
smoothSolver:  Solving for Uz, Initial residual = 0.0602492350991, Final residual = 0.00559692388448, No Iterations 2
GAMG:  Solving for p, Initial residual = 0.109784262753, Final residual = 0.00635164925328, No Iterations 2
GAMG:  Solving for p, Initial residual = 0.00538933343973, Final residual = 0.000380755475232, No Iterations 3
time step continuity errors : sum local = 3.93684177167e-06, global = 1.60755652843e-07, cumulative = 2.385092413e-07
smoothSolver:  Solving for omega, Initial residual = 0.039487660013, Final residual = 0.00128384369395, No Iterations 2
smoothSolver:  Solving for k, Initial residual = 0.0495519931914, Final residual = 0.00161650563933, No Iterations 2
ExecutionTime = 18.448 s  ClockTime = 18 s

Time = 11

========== Flavio's Actuator Surface Model (2023) ==============
(scalar) Horizontal Force: 14.22224 N
(scalar) Vertical Force: 0 N
Momentum Source (Thrust, Vertical Force, Horizontal Force): (14.22224 0 0) N
================================================================
smoothSolver:  Solving for Ux, Initial residual = 0.00559258314919, Final residual = 0.000438781540147, No Iterations 2
smoothSolver:  Solving for Uy, Initial residual = 0.048482635511, Final residual = 0.0043344586502, No Iterations 2
smoothSolver:  Solving for Uz, Initial residual = 0.0539722257252, Final residual = 0.00504035138437, No Iterations 2
GAMG:  Solving for p, Initial residual = 0.0911574432778, Final residual = 0.00481820459302, No Iterations 2
GAMG:  Solving for p, Initial residual = 0.00466987396481, Final residual = 0.000256139310747, No Iterations 3
time step continuity errors : sum local = 2.73534468439e-06, global = 1.07049717522e-07, cumulative = 3.45558958822e-07
smoothSolver:  Solving for omega, Initial residual = 0.0340213846748, Final residual = 0.00104433789115, No Iterations 2
smoothSolver:  Solving for k, Initial residual = 0.0429047714167, Final residual = 0.00131947001802, No Iterations 2
ExecutionTime = 18.85 s  ClockTime = 18 s

Time = 12

========== Flavio's Actuator Surface Model (2023) ==============
(scalar) Horizontal Force: 14.22224 N
(scalar) Vertical Force: 0 N
Momentum Source (Thrust, Vertical Force, Horizontal Force): (14.22224 0 0) N
================================================================
smoothSolver:  Solving for Ux, Initial residual = 0.00518492273117, Final residual = 0.000416537080756, No Iterations 2
smoothSolver:  Solving for Uy, Initial residual = 0.0491774904156, Final residual = 0.00443999649619, No Iterations 2
smoothSolver:  Solving for Uz, Initial residual = 0.0500390762016, Final residual = 0.0046936917348, No Iterations 2
GAMG:  Solving for p, Initial residual = 0.0798886274138, Final residual = 0.00382743197208, No Iterations 2
GAMG:  Solving for p, Initial residual = 0.00417766323721, Final residual = 0.000237769142279, No Iterations 3
time step continuity errors : sum local = 2.53226872364e-06, global = 8.56085660429e-08, cumulative = 4.31167524865e-07
smoothSolver:  Solving for omega, Initial residual = 0.0296123309613, Final residual = 0.000860771578675, No Iterations 2
smoothSolver:  Solving for k, Initial residual = 0.0374969032773, Final residual = 0.00108709519182, No Iterations 2
ExecutionTime = 19.243 s  ClockTime = 19 s

Time = 13

========== Flavio's Actuator Surface Model (2023) ==============
(scalar) Horizontal Force: 14.22224 N
(scalar) Vertical Force: 0 N
Momentum Source (Thrust, Vertical Force, Horizontal Force): (14.22224 0 0) N
================================================================
smoothSolver:  Solving for Ux, Initial residual = 0.00484942002674, Final residual = 0.000398313846288, No Iterations 2
smoothSolver:  Solving for Uy, Initial residual = 0.0454007609229, Final residual = 0.00412728190779, No Iterations 2
smoothSolver:  Solving for Uz, Initial residual = 0.0473310729877, Final residual = 0.00445712290957, No Iterations 2
GAMG:  Solving for p, Initial residual = 0.0730269241341, Final residual = 0.0033989800956, No Iterations 2
GAMG:  Solving for p, Initial residual = 0.00403380046061, Final residual = 0.000254919134958, No Iterations 3
time step continuity errors : sum local = 2.65229070576e-06, global = 1.17457956447e-07, cumulative = 5.48625481312e-07
smoothSolver:  Solving for omega, Initial residual = 0.0259972393805, Final residual = 0.000722075954533, No Iterations 2
smoothSolver:  Solving for k, Initial residual = 0.0330248270278, Final residual = 0.000908052582066, No Iterations 2
ExecutionTime = 19.651 s  ClockTime = 19 s

Time = 14

========== Flavio's Actuator Surface Model (2023) ==============
(scalar) Horizontal Force: 14.22224 N
(scalar) Vertical Force: 0 N
Momentum Source (Thrust, Vertical Force, Horizontal Force): (14.22224 0 0) N
================================================================
smoothSolver:  Solving for Ux, Initial residual = 0.00455233702606, Final residual = 0.000380466072939, No Iterations 2
smoothSolver:  Solving for Uy, Initial residual = 0.0407277556803, Final residual = 0.00370977712746, No Iterations 2
smoothSolver:  Solving for Uz, Initial residual = 0.0450773508458, Final residual = 0.00425446822459, No Iterations 2
GAMG:  Solving for p, Initial residual = 0.0691486716389, Final residual = 0.00311125547954, No Iterations 2
GAMG:  Solving for p, Initial residual = 0.00393598199456, Final residual = 0.000241713857301, No Iterations 3
time step continuity errors : sum local = 2.43577724331e-06, global = 9.03953297518e-08, cumulative = 6.39020811064e-07
smoothSolver:  Solving for omega, Initial residual = 0.0229844733391, Final residual = 0.000617979795467, No Iterations 2
smoothSolver:  Solving for k, Initial residual = 0.0292862431134, Final residual = 0.00077238387327, No Iterations 2
ExecutionTime = 20.043 s  ClockTime = 20 s

Time = 15

========== Flavio's Actuator Surface Model (2023) ==============
(scalar) Horizontal Force: 14.22224 N
(scalar) Vertical Force: 0 N
Momentum Source (Thrust, Vertical Force, Horizontal Force): (14.22224 0 0) N
================================================================
smoothSolver:  Solving for Ux, Initial residual = 0.00429809998323, Final residual = 0.000362293301182, No Iterations 2
smoothSolver:  Solving for Uy, Initial residual = 0.0366317677724, Final residual = 0.003333250652, No Iterations 2
smoothSolver:  Solving for Uz, Initial residual = 0.0428580721875, Final residual = 0.00404547367273, No Iterations 2
GAMG:  Solving for p, Initial residual = 0.0671613366449, Final residual = 0.00296646631816, No Iterations 2
GAMG:  Solving for p, Initial residual = 0.00389984363207, Final residual = 0.000223609087667, No Iterations 3
time step continuity errors : sum local = 2.19557886825e-06, global = 4.68921391634e-08, cumulative = 6.85912950228e-07
smoothSolver:  Solving for omega, Initial residual = 0.0204456940382, Final residual = 0.00054066985056, No Iterations 2
smoothSolver:  Solving for k, Initial residual = 0.0261235185395, Final residual = 0.000673321609408, No Iterations 2
ExecutionTime = 20.436 s  ClockTime = 20 s

Time = 16

========== Flavio's Actuator Surface Model (2023) ==============
(scalar) Horizontal Force: 14.22224 N
(scalar) Vertical Force: 0 N
Momentum Source (Thrust, Vertical Force, Horizontal Force): (14.22224 0 0) N
================================================================
smoothSolver:  Solving for Ux, Initial residual = 0.00410135567127, Final residual = 0.000347062093826, No Iterations 2
smoothSolver:  Solving for Uy, Initial residual = 0.0330074687811, Final residual = 0.00300040042558, No Iterations 2
smoothSolver:  Solving for Uz, Initial residual = 0.0405044394375, Final residual = 0.0038143898433, No Iterations 2
GAMG:  Solving for p, Initial residual = 0.065951106082, Final residual = 0.00293334167028, No Iterations 2
GAMG:  Solving for p, Initial residual = 0.00393034092608, Final residual = 0.000200539770231, No Iterations 3
time step continuity errors : sum local = 1.93978040656e-06, global = 6.41320710535e-08, cumulative = 7.50045021281e-07
smoothSolver:  Solving for omega, Initial residual = 0.0182808210922, Final residual = 0.000481808763181, No Iterations 2
smoothSolver:  Solving for k, Initial residual = 0.0234184352785, Final residual = 0.000601564199679, No Iterations 2
ExecutionTime = 20.844 s  ClockTime = 20 s

Time = 17

========== Flavio's Actuator Surface Model (2023) ==============
(scalar) Horizontal Force: 14.22224 N
(scalar) Vertical Force: 0 N
Momentum Source (Thrust, Vertical Force, Horizontal Force): (14.22224 0 0) N
================================================================
smoothSolver:  Solving for Ux, Initial residual = 0.00391781909397, Final residual = 0.000332181653132, No Iterations 2
smoothSolver:  Solving for Uy, Initial residual = 0.0298722467542, Final residual = 0.00270624074067, No Iterations 2
smoothSolver:  Solving for Uz, Initial residual = 0.0381137975401, Final residual = 0.00357090305977, No Iterations 2
GAMG:  Solving for p, Initial residual = 0.0646242436748, Final residual = 0.00304844799084, No Iterations 2
GAMG:  Solving for p, Initial residual = 0.00406670516911, Final residual = 0.000241392116319, No Iterations 3
time step continuity errors : sum local = 2.33033010884e-06, global = 4.27138371855e-08, cumulative = 7.92758858467e-07
smoothSolver:  Solving for omega, Initial residual = 0.0164179502375, Final residual = 0.000438092627408, No Iterations 2
smoothSolver:  Solving for k, Initial residual = 0.021087096692, Final residual = 0.000550093943504, No Iterations 2
ExecutionTime = 21.252 s  ClockTime = 21 s

Time = 18

========== Flavio's Actuator Surface Model (2023) ==============
(scalar) Horizontal Force: 14.22224 N
(scalar) Vertical Force: 0 N
Momentum Source (Thrust, Vertical Force, Horizontal Force): (14.22224 0 0) N
================================================================
smoothSolver:  Solving for Ux, Initial residual = 0.00373860209822, Final residual = 0.000316097738505, No Iterations 2
smoothSolver:  Solving for Uy, Initial residual = 0.0272667864695, Final residual = 0.00246282935042, No Iterations 2
smoothSolver:  Solving for Uz, Initial residual = 0.0358301648953, Final residual = 0.00333294150285, No Iterations 2
GAMG:  Solving for p, Initial residual = 0.0635680282906, Final residual = 0.00315581072082, No Iterations 2
GAMG:  Solving for p, Initial residual = 0.0041434056427, Final residual = 0.000254764674901, No Iterations 3
time step continuity errors : sum local = 2.48636704916e-06, global = 4.75743424809e-08, cumulative = 8.40333200947e-07
smoothSolver:  Solving for omega, Initial residual = 0.0148023196148, Final residual = 0.000405953915013, No Iterations 2
smoothSolver:  Solving for k, Initial residual = 0.019064142058, Final residual = 0.000514691826577, No Iterations 2
ExecutionTime = 21.671 s  ClockTime = 21 s

Time = 19

========== Flavio's Actuator Surface Model (2023) ==============
(scalar) Horizontal Force: 14.22224 N
(scalar) Vertical Force: 0 N
Momentum Source (Thrust, Vertical Force, Horizontal Force): (14.22224 0 0) N
================================================================
smoothSolver:  Solving for Ux, Initial residual = 0.00357056744806, Final residual = 0.000299959868223, No Iterations 2
smoothSolver:  Solving for Uy, Initial residual = 0.0251613672638, Final residual = 0.00226939959825, No Iterations 2
smoothSolver:  Solving for Uz, Initial residual = 0.0337647825199, Final residual = 0.00311612455213, No Iterations 2
GAMG:  Solving for p, Initial residual = 0.0619471994145, Final residual = 0.00321298002995, No Iterations 2
GAMG:  Solving for p, Initial residual = 0.004129174141, Final residual = 0.000237413588881, No Iterations 3
time step continuity errors : sum local = 2.36198620763e-06, global = 6.03922479042e-08, cumulative = 9.00725448852e-07
smoothSolver:  Solving for omega, Initial residual = 0.0133940910844, Final residual = 0.000381276764104, No Iterations 2
smoothSolver:  Solving for k, Initial residual = 0.0173092958529, Final residual = 0.000491600473342, No Iterations 2
ExecutionTime = 22.103 s  ClockTime = 22 s

Time = 20

========== Flavio's Actuator Surface Model (2023) ==============
(scalar) Horizontal Force: 14.22224 N
(scalar) Vertical Force: 0 N
Momentum Source (Thrust, Vertical Force, Horizontal Force): (14.22224 0 0) N
================================================================
smoothSolver:  Solving for Ux, Initial residual = 0.00340298070814, Final residual = 0.000285453207697, No Iterations 2
smoothSolver:  Solving for Uy, Initial residual = 0.0235271366327, Final residual = 0.00212223232326, No Iterations 2
smoothSolver:  Solving for Uz, Initial residual = 0.0319958133999, Final residual = 0.00293552533302, No Iterations 2
GAMG:  Solving for p, Initial residual = 0.0603586175266, Final residual = 0.00327470383436, No Iterations 2
GAMG:  Solving for p, Initial residual = 0.00409983875979, Final residual = 0.000230587626313, No Iterations 3
time step continuity errors : sum local = 2.34519340089e-06, global = 4.65314639137e-08, cumulative = 9.47256912765e-07
smoothSolver:  Solving for omega, Initial residual = 0.0121575275127, Final residual = 0.000362427344027, No Iterations 2
smoothSolver:  Solving for k, Initial residual = 0.0157893483331, Final residual = 0.000478110538078, No Iterations 2
ExecutionTime = 22.549 s  ClockTime = 22 s

Time = 21

========== Flavio's Actuator Surface Model (2023) ==============
(scalar) Horizontal Force: 14.22224 N
(scalar) Vertical Force: 0 N
Momentum Source (Thrust, Vertical Force, Horizontal Force): (14.22224 0 0) N
================================================================
smoothSolver:  Solving for Ux, Initial residual = 0.00324056988096, Final residual = 0.000272658309915, No Iterations 2
smoothSolver:  Solving for Uy, Initial residual = 0.0222951095023, Final residual = 0.00201060545448, No Iterations 2
smoothSolver:  Solving for Uz, Initial residual = 0.0305155184634, Final residual = 0.00279175739967, No Iterations 2
GAMG:  Solving for p, Initial residual = 0.059132991569, Final residual = 0.00315487024157, No Iterations 2
GAMG:  Solving for p, Initial residual = 0.00390318624232, Final residual = 0.000216974383203, No Iterations 3
time step continuity errors : sum local = 2.25539747465e-06, global = 4.32876824458e-08, cumulative = 9.90544595211e-07
smoothSolver:  Solving for omega, Initial residual = 0.0110712943406, Final residual = 0.000350298898398, No Iterations 2
smoothSolver:  Solving for k, Initial residual = 0.0144846219702, Final residual = 0.000473864172406, No Iterations 2
ExecutionTime = 22.958 s  ClockTime = 23 s

Time = 22

========== Flavio's Actuator Surface Model (2023) ==============
(scalar) Horizontal Force: 14.22224 N
(scalar) Vertical Force: 0 N
Momentum Source (Thrust, Vertical Force, Horizontal Force): (14.22224 0 0) N
================================================================
smoothSolver:  Solving for Ux, Initial residual = 0.00309108974095, Final residual = 0.000261260810862, No Iterations 2
smoothSolver:  Solving for Uy, Initial residual = 0.0212880631326, Final residual = 0.0019198148153, No Iterations 2
smoothSolver:  Solving for Uz, Initial residual = 0.0292526529324, Final residual = 0.00267756517918, No Iterations 2
GAMG:  Solving for p, Initial residual = 0.0577847590536, Final residual = 0.0030191237912, No Iterations 2
GAMG:  Solving for p, Initial residual = 0.00370112530712, Final residual = 0.000201267801573, No Iterations 3
time step continuity errors : sum local = 2.13604901674e-06, global = 4.2257730138e-08, cumulative = 1.03280232535e-06
smoothSolver:  Solving for omega, Initial residual = 0.0101148123438, Final residual = 0.000342217251524, No Iterations 2
smoothSolver:  Solving for k, Initial residual = 0.0133743770428, Final residual = 0.000479200623119, No Iterations 2
ExecutionTime = 23.351 s  ClockTime = 23 s

Time = 23

========== Flavio's Actuator Surface Model (2023) ==============
(scalar) Horizontal Force: 14.22224 N
(scalar) Vertical Force: 0 N
Momentum Source (Thrust, Vertical Force, Horizontal Force): (14.22224 0 0) N
================================================================
smoothSolver:  Solving for Ux, Initial residual = 0.00295468888107, Final residual = 0.000251740298511, No Iterations 2
smoothSolver:  Solving for Uy, Initial residual = 0.0203573112683, Final residual = 0.00183817278219, No Iterations 2
smoothSolver:  Solving for Uz, Initial residual = 0.0281401988886, Final residual = 0.00258260482093, No Iterations 2
GAMG:  Solving for p, Initial residual = 0.0562834690144, Final residual = 0.00290041468891, No Iterations 2
GAMG:  Solving for p, Initial residual = 0.00352004675595, Final residual = 0.000194048455754, No Iterations 3
time step continuity errors : sum local = 2.1003680297e-06, global = 4.71717116389e-08, cumulative = 1.07997403699e-06
smoothSolver:  Solving for omega, Initial residual = 0.00926996155383, Final residual = 0.000336364548429, No Iterations 2
smoothSolver:  Solving for k, Initial residual = 0.0124399286592, Final residual = 0.00049162886607, No Iterations 2
ExecutionTime = 23.791 s  ClockTime = 23 s

Time = 24

========== Flavio's Actuator Surface Model (2023) ==============
(scalar) Horizontal Force: 14.22224 N
(scalar) Vertical Force: 0 N
Momentum Source (Thrust, Vertical Force, Horizontal Force): (14.22224 0 0) N
================================================================
smoothSolver:  Solving for Ux, Initial residual = 0.00282776610099, Final residual = 0.000243383791764, No Iterations 2
smoothSolver:  Solving for Uy, Initial residual = 0.0194578150676, Final residual = 0.00175908939462, No Iterations 2
smoothSolver:  Solving for Uz, Initial residual = 0.0271359927912, Final residual = 0.00249685446807, No Iterations 2
GAMG:  Solving for p, Initial residual = 0.0547174694398, Final residual = 0.0028088395922, No Iterations 2
GAMG:  Solving for p, Initial residual = 0.00337168606286, Final residual = 0.000193725802765, No Iterations 3
time step continuity errors : sum local = 2.13299060549e-06, global = 1.20739269262e-07, cumulative = 1.20071330625e-06
smoothSolver:  Solving for omega, Initial residual = 0.00851758912545, Final residual = 0.000331164819935, No Iterations 2
smoothSolver:  Solving for k, Initial residual = 0.0116272152605, Final residual = 0.000506443544678, No Iterations 2
ExecutionTime = 24.227 s  ClockTime = 24 s

Time = 25

========== Flavio's Actuator Surface Model (2023) ==============
(scalar) Horizontal Force: 14.22224 N
(scalar) Vertical Force: 0 N
Momentum Source (Thrust, Vertical Force, Horizontal Force): (14.22224 0 0) N
================================================================
smoothSolver:  Solving for Ux, Initial residual = 0.00271041526933, Final residual = 0.000235077285231, No Iterations 2
smoothSolver:  Solving for Uy, Initial residual = 0.0185922361805, Final residual = 0.00168006857589, No Iterations 2
smoothSolver:  Solving for Uz, Initial residual = 0.0261982637366, Final residual = 0.00241615731551, No Iterations 2
GAMG:  Solving for p, Initial residual = 0.0531782423972, Final residual = 0.00273884433016, No Iterations 2
GAMG:  Solving for p, Initial residual = 0.00325205078157, Final residual = 0.000208607857179, No Iterations 3
time step continuity errors : sum local = 2.3323361342e-06, global = 1.13043783487e-07, cumulative = 1.31375708974e-06
smoothSolver:  Solving for omega, Initial residual = 0.00784082196894, Final residual = 0.000326158585836, No Iterations 2
smoothSolver:  Solving for k, Initial residual = 0.0108955029423, Final residual = 0.000518785975289, No Iterations 2
ExecutionTime = 24.654 s  ClockTime = 24 s

Time = 26

========== Flavio's Actuator Surface Model (2023) ==============
(scalar) Horizontal Force: 14.22224 N
(scalar) Vertical Force: 0 N
Momentum Source (Thrust, Vertical Force, Horizontal Force): (14.22224 0 0) N
================================================================
smoothSolver:  Solving for Ux, Initial residual = 0.00260505106657, Final residual = 0.000226811063554, No Iterations 2
smoothSolver:  Solving for Uy, Initial residual = 0.0177625050673, Final residual = 0.00160076710312, No Iterations 2
smoothSolver:  Solving for Uz, Initial residual = 0.0253001732152, Final residual = 0.00233931063716, No Iterations 2
GAMG:  Solving for p, Initial residual = 0.0516806604202, Final residual = 0.00266242906946, No Iterations 2
GAMG:  Solving for p, Initial residual = 0.00313325059152, Final residual = 0.000209700385408, No Iterations 3
time step continuity errors : sum local = 2.37647299707e-06, global = 9.57801658867e-08, cumulative = 1.40953725562e-06
smoothSolver:  Solving for omega, Initial residual = 0.00721026844652, Final residual = 0.000319092943062, No Iterations 2
smoothSolver:  Solving for k, Initial residual = 0.0102027539346, Final residual = 0.000522967006283, No Iterations 2
ExecutionTime = 25.079 s  ClockTime = 25 s

Time = 27

========== Flavio's Actuator Surface Model (2023) ==============
(scalar) Horizontal Force: 14.22224 N
(scalar) Vertical Force: 0 N
Momentum Source (Thrust, Vertical Force, Horizontal Force): (14.22224 0 0) N
================================================================
smoothSolver:  Solving for Ux, Initial residual = 0.00250836589497, Final residual = 0.000218791428924, No Iterations 2
smoothSolver:  Solving for Uy, Initial residual = 0.0169793713916, Final residual = 0.00152521968014, No Iterations 2
smoothSolver:  Solving for Uz, Initial residual = 0.0244560876156, Final residual = 0.00226428820347, No Iterations 2
GAMG:  Solving for p, Initial residual = 0.0503176908777, Final residual = 0.00258716266781, No Iterations 2
GAMG:  Solving for p, Initial residual = 0.0030179689983, Final residual = 0.000203988966383, No Iterations 3
time step continuity errors : sum local = 2.34248581127e-06, global = 9.48643658935e-08, cumulative = 1.50440162152e-06
smoothSolver:  Solving for omega, Initial residual = 0.00663968074701, Final residual = 0.000309549296943, No Iterations 2
smoothSolver:  Solving for k, Initial residual = 0.0095888972403, Final residual = 0.000523854284922, No Iterations 2
ExecutionTime = 25.481 s  ClockTime = 25 s

Time = 28

========== Flavio's Actuator Surface Model (2023) ==============
(scalar) Horizontal Force: 14.22224 N
(scalar) Vertical Force: 0 N
Momentum Source (Thrust, Vertical Force, Horizontal Force): (14.22224 0 0) N
================================================================
smoothSolver:  Solving for Ux, Initial residual = 0.00242365076352, Final residual = 0.000210903767496, No Iterations 2
smoothSolver:  Solving for Uy, Initial residual = 0.0162294262416, Final residual = 0.00145080491682, No Iterations 2
smoothSolver:  Solving for Uz, Initial residual = 0.0236565676081, Final residual = 0.00218907352569, No Iterations 2
GAMG:  Solving for p, Initial residual = 0.0487457943944, Final residual = 0.00251686799045, No Iterations 2
GAMG:  Solving for p, Initial residual = 0.00290886381952, Final residual = 0.000194763585563, No Iterations 3
time step continuity errors : sum local = 2.26350932403e-06, global = 9.82351735184e-08, cumulative = 1.60263679504e-06
smoothSolver:  Solving for omega, Initial residual = 0.00612572404752, Final residual = 0.000299512447702, No Iterations 2
smoothSolver:  Solving for k, Initial residual = 0.00903237369352, Final residual = 0.000519591670972, No Iterations 2
ExecutionTime = 25.873 s  ClockTime = 25 s

Time = 29

========== Flavio's Actuator Surface Model (2023) ==============
(scalar) Horizontal Force: 14.22224 N
(scalar) Vertical Force: 0 N
Momentum Source (Thrust, Vertical Force, Horizontal Force): (14.22224 0 0) N
================================================================
smoothSolver:  Solving for Ux, Initial residual = 0.0023511807152, Final residual = 0.000203069922659, No Iterations 2
smoothSolver:  Solving for Uy, Initial residual = 0.0155013864568, Final residual = 0.00137904902303, No Iterations 2
smoothSolver:  Solving for Uz, Initial residual = 0.0228863324432, Final residual = 0.0021140277273, No Iterations 2
GAMG:  Solving for p, Initial residual = 0.0471271855508, Final residual = 0.00246255325108, No Iterations 2
GAMG:  Solving for p, Initial residual = 0.00281587398274, Final residual = 0.00018449317797, No Iterations 3
time step continuity errors : sum local = 2.16834038152e-06, global = 9.64845441248e-08, cumulative = 1.69912133916e-06
smoothSolver:  Solving for omega, Initial residual = 0.00566068861678, Final residual = 0.000288154130798, No Iterations 2
smoothSolver:  Solving for k, Initial residual = 0.00852494460051, Final residual = 0.000508327263197, No Iterations 2
ExecutionTime = 26.265 s  ClockTime = 26 s

Time = 30

========== Flavio's Actuator Surface Model (2023) ==============
(scalar) Horizontal Force: 14.22224 N
(scalar) Vertical Force: 0 N
Momentum Source (Thrust, Vertical Force, Horizontal Force): (14.22224 0 0) N
================================================================
smoothSolver:  Solving for Ux, Initial residual = 0.00228658604065, Final residual = 0.000195412365156, No Iterations 2
smoothSolver:  Solving for Uy, Initial residual = 0.0148017215178, Final residual = 0.00131014114038, No Iterations 2
smoothSolver:  Solving for Uz, Initial residual = 0.0221463981406, Final residual = 0.00204063818812, No Iterations 2
GAMG:  Solving for p, Initial residual = 0.0456904174155, Final residual = 0.00240837081801, No Iterations 2
GAMG:  Solving for p, Initial residual = 0.0027270613292, Final residual = 0.000171865912973, No Iterations 3
time step continuity errors : sum local = 2.04039624653e-06, global = 8.35525930696e-08, cumulative = 1.78267393223e-06
smoothSolver:  Solving for omega, Initial residual = 0.00524322166732, Final residual = 0.000277096205701, No Iterations 2
smoothSolver:  Solving for k, Initial residual = 0.00806565458204, Final residual = 0.000492158180919, No Iterations 2
ExecutionTime = 26.674 s  ClockTime = 26 s

Time = 31

========== Flavio's Actuator Surface Model (2023) ==============
(scalar) Horizontal Force: 14.22224 N
(scalar) Vertical Force: 0 N
Momentum Source (Thrust, Vertical Force, Horizontal Force): (14.22224 0 0) N
================================================================
smoothSolver:  Solving for Ux, Initial residual = 0.0022290985007, Final residual = 0.000188263498047, No Iterations 2
smoothSolver:  Solving for Uy, Initial residual = 0.0141236781397, Final residual = 0.00124292048204, No Iterations 2
smoothSolver:  Solving for Uz, Initial residual = 0.021442221284, Final residual = 0.00196932466175, No Iterations 2
GAMG:  Solving for p, Initial residual = 0.0443519101354, Final residual = 0.00237018939146, No Iterations 2
GAMG:  Solving for p, Initial residual = 0.00265622991731, Final residual = 0.000168804124506, No Iterations 3
time step continuity errors : sum local = 2.02477465111e-06, global = 6.77608712136e-08, cumulative = 1.85043480344e-06
smoothSolver:  Solving for omega, Initial residual = 0.00486992332722, Final residual = 0.000268125107875, No Iterations 2
smoothSolver:  Solving for k, Initial residual = 0.00765418008584, Final residual = 0.000477390828119, No Iterations 2
ExecutionTime = 27.073 s  ClockTime = 27 s

Time = 32

========== Flavio's Actuator Surface Model (2023) ==============
(scalar) Horizontal Force: 14.22224 N
(scalar) Vertical Force: 0 N
Momentum Source (Thrust, Vertical Force, Horizontal Force): (14.22224 0 0) N
================================================================
smoothSolver:  Solving for Ux, Initial residual = 0.00217704357415, Final residual = 0.00018175293223, No Iterations 2
smoothSolver:  Solving for Uy, Initial residual = 0.0134695617702, Final residual = 0.00117885945172, No Iterations 2
smoothSolver:  Solving for Uz, Initial residual = 0.020778711544, Final residual = 0.00190271265295, No Iterations 2
GAMG:  Solving for p, Initial residual = 0.0429919346843, Final residual = 0.0023125680641, No Iterations 2
GAMG:  Solving for p, Initial residual = 0.00257098989253, Final residual = 0.000164001475858, No Iterations 3
time step continuity errors : sum local = 1.98506384809e-06, global = 5.20135362824e-08, cumulative = 1.90244833973e-06
smoothSolver:  Solving for omega, Initial residual = 0.00453662063923, Final residual = 0.000260174666508, No Iterations 2
smoothSolver:  Solving for k, Initial residual = 0.00728618855655, Final residual = 0.000466363276069, No Iterations 2
ExecutionTime = 27.499 s  ClockTime = 27 s

Time = 33

========== Flavio's Actuator Surface Model (2023) ==============
(scalar) Horizontal Force: 14.22224 N
(scalar) Vertical Force: 0 N
Momentum Source (Thrust, Vertical Force, Horizontal Force): (14.22224 0 0) N
================================================================
smoothSolver:  Solving for Ux, Initial residual = 0.00212725994574, Final residual = 0.000176054312948, No Iterations 2
smoothSolver:  Solving for Uy, Initial residual = 0.0128479899039, Final residual = 0.00112143059073, No Iterations 2
smoothSolver:  Solving for Uz, Initial residual = 0.0201732474017, Final residual = 0.00184053956789, No Iterations 2
GAMG:  Solving for p, Initial residual = 0.0415884815585, Final residual = 0.00224236180408, No Iterations 2
GAMG:  Solving for p, Initial residual = 0.00247839766516, Final residual = 0.000160394120679, No Iterations 3
time step continuity errors : sum local = 1.95776707193e-06, global = 4.50272756487e-08, cumulative = 1.94747561538e-06
smoothSolver:  Solving for omega, Initial residual = 0.00424009384321, Final residual = 0.000252618983683, No Iterations 2
smoothSolver:  Solving for k, Initial residual = 0.0069523296978, Final residual = 0.000457917969041, No Iterations 2
ExecutionTime = 27.897 s  ClockTime = 27 s

Time = 34

========== Flavio's Actuator Surface Model (2023) ==============
(scalar) Horizontal Force: 14.22224 N
(scalar) Vertical Force: 0 N
Momentum Source (Thrust, Vertical Force, Horizontal Force): (14.22224 0 0) N
================================================================
smoothSolver:  Solving for Ux, Initial residual = 0.00207722726391, Final residual = 0.000171179644963, No Iterations 2
smoothSolver:  Solving for Uy, Initial residual = 0.0122701683824, Final residual = 0.00107022707788, No Iterations 2
smoothSolver:  Solving for Uz, Initial residual = 0.0196363183662, Final residual = 0.00178417426901, No Iterations 2
GAMG:  Solving for p, Initial residual = 0.0402541462847, Final residual = 0.00215914281829, No Iterations 2
GAMG:  Solving for p, Initial residual = 0.00237746505253, Final residual = 0.000158992401703, No Iterations 3
time step continuity errors : sum local = 1.95676916765e-06, global = 4.39435179332e-08, cumulative = 1.99141913331e-06
smoothSolver:  Solving for omega, Initial residual = 0.00397640766176, Final residual = 0.000245161830815, No Iterations 2
smoothSolver:  Solving for k, Initial residual = 0.00665331508208, Final residual = 0.00044918600769, No Iterations 2
ExecutionTime = 28.301 s  ClockTime = 28 s

Time = 35

========== Flavio's Actuator Surface Model (2023) ==============
(scalar) Horizontal Force: 14.22224 N
(scalar) Vertical Force: 0 N
Momentum Source (Thrust, Vertical Force, Horizontal Force): (14.22224 0 0) N
================================================================
smoothSolver:  Solving for Ux, Initial residual = 0.00202568845012, Final residual = 0.000167077692818, No Iterations 2
smoothSolver:  Solving for Uy, Initial residual = 0.0117534813917, Final residual = 0.00102443500511, No Iterations 2
smoothSolver:  Solving for Uz, Initial residual = 0.0191597651085, Final residual = 0.00173202485564, No Iterations 2
GAMG:  Solving for p, Initial residual = 0.0390166140633, Final residual = 0.00207575142195, No Iterations 2
GAMG:  Solving for p, Initial residual = 0.00228245959647, Final residual = 0.000161091864588, No Iterations 3
time step continuity errors : sum local = 1.99828364281e-06, global = 4.85286854131e-08, cumulative = 2.03994781872e-06
smoothSolver:  Solving for omega, Initial residual = 0.00374195744381, Final residual = 0.000237993825519, No Iterations 2
smoothSolver:  Solving for k, Initial residual = 0.00638113972061, Final residual = 0.000438406352025, No Iterations 2
ExecutionTime = 28.688 s  ClockTime = 28 s

Time = 36

========== Flavio's Actuator Surface Model (2023) ==============
(scalar) Horizontal Force: 14.22224 N
(scalar) Vertical Force: 0 N
Momentum Source (Thrust, Vertical Force, Horizontal Force): (14.22224 0 0) N
================================================================
smoothSolver:  Solving for Ux, Initial residual = 0.00197514235091, Final residual = 0.000163399293377, No Iterations 2
smoothSolver:  Solving for Uy, Initial residual = 0.0112906644241, Final residual = 0.000982500000323, No Iterations 2
smoothSolver:  Solving for Uz, Initial residual = 0.0187276383644, Final residual = 0.00168326286147, No Iterations 2
GAMG:  Solving for p, Initial residual = 0.0378373170317, Final residual = 0.00198410270003, No Iterations 2
GAMG:  Solving for p, Initial residual = 0.00218683973028, Final residual = 0.000160472035195, No Iterations 3
time step continuity errors : sum local = 2.00493804922e-06, global = 4.97518664586e-08, cumulative = 2.08969968518e-06
smoothSolver:  Solving for omega, Initial residual = 0.00353472018361, Final residual = 0.000230885769906, No Iterations 2
smoothSolver:  Solving for k, Initial residual = 0.00613401014339, Final residual = 0.000425846098133, No Iterations 2
ExecutionTime = 29.095 s  ClockTime = 29 s

Time = 37

========== Flavio's Actuator Surface Model (2023) ==============
(scalar) Horizontal Force: 14.22224 N
(scalar) Vertical Force: 0 N
Momentum Source (Thrust, Vertical Force, Horizontal Force): (14.22224 0 0) N
================================================================
smoothSolver:  Solving for Ux, Initial residual = 0.0019282151926, Final residual = 0.00016005093948, No Iterations 2
smoothSolver:  Solving for Uy, Initial residual = 0.0108700876144, Final residual = 0.000943866308054, No Iterations 2
smoothSolver:  Solving for Uz, Initial residual = 0.0183255486958, Final residual = 0.00163731910446, No Iterations 2
GAMG:  Solving for p, Initial residual = 0.0367101897321, Final residual = 0.00189462680034, No Iterations 2
GAMG:  Solving for p, Initial residual = 0.00209746829727, Final residual = 0.000155800546925, No Iterations 3
time step continuity errors : sum local = 1.95950399568e-06, global = 4.99649052351e-08, cumulative = 2.13966459042e-06
smoothSolver:  Solving for omega, Initial residual = 0.00335285686399, Final residual = 0.000224123767022, No Iterations 2
smoothSolver:  Solving for k, Initial residual = 0.0059083545194, Final residual = 0.000410529193675, No Iterations 2
ExecutionTime = 29.524 s  ClockTime = 29 s

Time = 38

========== Flavio's Actuator Surface Model (2023) ==============
(scalar) Horizontal Force: 14.22224 N
(scalar) Vertical Force: 0 N
Momentum Source (Thrust, Vertical Force, Horizontal Force): (14.22224 0 0) N
================================================================
smoothSolver:  Solving for Ux, Initial residual = 0.00188412892426, Final residual = 0.000156902850561, No Iterations 2
smoothSolver:  Solving for Uy, Initial residual = 0.0104780372005, Final residual = 0.000906524959395, No Iterations 2
smoothSolver:  Solving for Uz, Initial residual = 0.0179450117235, Final residual = 0.00159535098619, No Iterations 2
GAMG:  Solving for p, Initial residual = 0.0355660323399, Final residual = 0.00182934312035, No Iterations 2
GAMG:  Solving for p, Initial residual = 0.00203318882869, Final residual = 0.000154049973321, No Iterations 3
time step continuity errors : sum local = 1.95078372294e-06, global = 5.23282118946e-08, cumulative = 2.19199280231e-06
smoothSolver:  Solving for omega, Initial residual = 0.00319270627304, Final residual = 0.000218601329328, No Iterations 2
smoothSolver:  Solving for k, Initial residual = 0.00570377815901, Final residual = 0.000394810424049, No Iterations 2
ExecutionTime = 29.953 s  ClockTime = 30 s

Time = 39

========== Flavio's Actuator Surface Model (2023) ==============
(scalar) Horizontal Force: 14.22224 N
(scalar) Vertical Force: 0 N
Momentum Source (Thrust, Vertical Force, Horizontal Force): (14.22224 0 0) N
================================================================
smoothSolver:  Solving for Ux, Initial residual = 0.00184385805596, Final residual = 0.000153828916618, No Iterations 2
smoothSolver:  Solving for Uy, Initial residual = 0.0101054947066, Final residual = 0.000869488917001, No Iterations 2
smoothSolver:  Solving for Uz, Initial residual = 0.0175821606281, Final residual = 0.00155679350229, No Iterations 2
GAMG:  Solving for p, Initial residual = 0.0344015301428, Final residual = 0.00178017298121, No Iterations 2
GAMG:  Solving for p, Initial residual = 0.00198544799399, Final residual = 0.000150684756417, No Iterations 3
time step continuity errors : sum local = 1.92150075188e-06, global = 4.68013214017e-08, cumulative = 2.23879412371e-06
smoothSolver:  Solving for omega, Initial residual = 0.0030541524868, Final residual = 0.000214403297706, No Iterations 2
smoothSolver:  Solving for k, Initial residual = 0.00551615190272, Final residual = 0.000382151648393, No Iterations 2
ExecutionTime = 30.358 s  ClockTime = 30 s

Time = 40

========== Flavio's Actuator Surface Model (2023) ==============
(scalar) Horizontal Force: 14.22224 N
(scalar) Vertical Force: 0 N
Momentum Source (Thrust, Vertical Force, Horizontal Force): (14.22224 0 0) N
================================================================
smoothSolver:  Solving for Ux, Initial residual = 0.00180775884479, Final residual = 0.000150877751406, No Iterations 2
smoothSolver:  Solving for Uy, Initial residual = 0.00975057100713, Final residual = 0.000834611086829, No Iterations 2
smoothSolver:  Solving for Uz, Initial residual = 0.0172466106577, Final residual = 0.00152189022866, No Iterations 2
GAMG:  Solving for p, Initial residual = 0.0332538871759, Final residual = 0.00174311510285, No Iterations 2
GAMG:  Solving for p, Initial residual = 0.00195024572172, Final residual = 0.0001452599306, No Iterations 3
time step continuity errors : sum local = 1.86554893482e-06, global = 3.77706367937e-08, cumulative = 2.27656476051e-06
smoothSolver:  Solving for omega, Initial residual = 0.00293364548135, Final residual = 0.0002115935806, No Iterations 2
smoothSolver:  Solving for k, Initial residual = 0.00534921563749, Final residual = 0.000372844069057, No Iterations 2
ExecutionTime = 30.795 s  ClockTime = 30 s

Time = 41

========== Flavio's Actuator Surface Model (2023) ==============
(scalar) Horizontal Force: 14.22224 N
(scalar) Vertical Force: 0 N
Momentum Source (Thrust, Vertical Force, Horizontal Force): (14.22224 0 0) N
================================================================
smoothSolver:  Solving for Ux, Initial residual = 0.0017741957269, Final residual = 0.00014816728937, No Iterations 2
smoothSolver:  Solving for Uy, Initial residual = 0.00941761245171, Final residual = 0.000802152769831, No Iterations 2
smoothSolver:  Solving for Uz, Initial residual = 0.0169349564238, Final residual = 0.0014909967426, No Iterations 2
GAMG:  Solving for p, Initial residual = 0.032182624659, Final residual = 0.00172267023016, No Iterations 2
GAMG:  Solving for p, Initial residual = 0.00193239012436, Final residual = 0.000143434048998, No Iterations 3
time step continuity errors : sum local = 1.8552270555e-06, global = 3.3771722769e-08, cumulative = 2.31033648327e-06
smoothSolver:  Solving for omega, Initial residual = 0.00282977812988, Final residual = 0.000209550588468, No Iterations 2
smoothSolver:  Solving for k, Initial residual = 0.00520264566112, Final residual = 0.000367085595331, No Iterations 2
ExecutionTime = 31.222 s  ClockTime = 31 s

Time = 42

========== Flavio's Actuator Surface Model (2023) ==============
(scalar) Horizontal Force: 14.22224 N
(scalar) Vertical Force: 0 N
Momentum Source (Thrust, Vertical Force, Horizontal Force): (14.22224 0 0) N
================================================================
smoothSolver:  Solving for Ux, Initial residual = 0.00174145237703, Final residual = 0.000145723271545, No Iterations 2
smoothSolver:  Solving for Uy, Initial residual = 0.00911088954728, Final residual = 0.000773541799997, No Iterations 2
smoothSolver:  Solving for Uz, Initial residual = 0.0166476268941, Final residual = 0.00146507095435, No Iterations 2
GAMG:  Solving for p, Initial residual = 0.0311987529522, Final residual = 0.00169962639182, No Iterations 2
GAMG:  Solving for p, Initial residual = 0.00191302129835, Final residual = 0.000139441869113, No Iterations 3
time step continuity errors : sum local = 1.81578992716e-06, global = 2.91568906992e-08, cumulative = 2.33949337397e-06
smoothSolver:  Solving for omega, Initial residual = 0.00273940011781, Final residual = 0.000207815387527, No Iterations 2
smoothSolver:  Solving for k, Initial residual = 0.00507383176231, Final residual = 0.0003638453825, No Iterations 2
ExecutionTime = 31.639 s  ClockTime = 31 s

Time = 43

========== Flavio's Actuator Surface Model (2023) ==============
(scalar) Horizontal Force: 14.22224 N
(scalar) Vertical Force: 0 N
Momentum Source (Thrust, Vertical Force, Horizontal Force): (14.22224 0 0) N
================================================================
smoothSolver:  Solving for Ux, Initial residual = 0.00170903766507, Final residual = 0.000143476390868, No Iterations 2
smoothSolver:  Solving for Uy, Initial residual = 0.00883278955283, Final residual = 0.000749143074983, No Iterations 2
smoothSolver:  Solving for Uz, Initial residual = 0.0163842839614, Final residual = 0.00144330989363, No Iterations 2
GAMG:  Solving for p, Initial residual = 0.0302672346879, Final residual = 0.00168168033866, No Iterations 2
GAMG:  Solving for p, Initial residual = 0.00189947369746, Final residual = 0.000135142957302, No Iterations 3
time step continuity errors : sum local = 1.77107739079e-06, global = 2.95903906063e-08, cumulative = 2.36908376458e-06
smoothSolver:  Solving for omega, Initial residual = 0.00266025938977, Final residual = 0.000206111063071, No Iterations 2
smoothSolver:  Solving for k, Initial residual = 0.00496055037685, Final residual = 0.000361103910032, No Iterations 2
ExecutionTime = 32.058 s  ClockTime = 32 s

Time = 44

========== Flavio's Actuator Surface Model (2023) ==============
(scalar) Horizontal Force: 14.22224 N
(scalar) Vertical Force: 0 N
Momentum Source (Thrust, Vertical Force, Horizontal Force): (14.22224 0 0) N
================================================================
smoothSolver:  Solving for Ux, Initial residual = 0.00167680848361, Final residual = 0.000141364415769, No Iterations 2
smoothSolver:  Solving for Uy, Initial residual = 0.00857785833668, Final residual = 0.000727130835385, No Iterations 2
smoothSolver:  Solving for Uz, Initial residual = 0.0161440290713, Final residual = 0.00142455625981, No Iterations 2
GAMG:  Solving for p, Initial residual = 0.0293586262679, Final residual = 0.00166886058589, No Iterations 2
GAMG:  Solving for p, Initial residual = 0.00189003999353, Final residual = 0.000129699167684, No Iterations 3
time step continuity errors : sum local = 1.71014786459e-06, global = 3.65529232018e-08, cumulative = 2.40563668778e-06
smoothSolver:  Solving for omega, Initial residual = 0.00259003608106, Final residual = 0.000204368554592, No Iterations 2
smoothSolver:  Solving for k, Initial residual = 0.00485830575446, Final residual = 0.000359286010202, No Iterations 2
ExecutionTime = 32.494 s  ClockTime = 32 s

Time = 45

========== Flavio's Actuator Surface Model (2023) ==============
(scalar) Horizontal Force: 14.22224 N
(scalar) Vertical Force: 0 N
Momentum Source (Thrust, Vertical Force, Horizontal Force): (14.22224 0 0) N
================================================================
smoothSolver:  Solving for Ux, Initial residual = 0.00164525667278, Final residual = 0.000139192798441, No Iterations 2
smoothSolver:  Solving for Uy, Initial residual = 0.00833960284892, Final residual = 0.000706721470125, No Iterations 2
smoothSolver:  Solving for Uz, Initial residual = 0.0159214620383, Final residual = 0.00140755705313, No Iterations 2
GAMG:  Solving for p, Initial residual = 0.0285119738917, Final residual = 0.00166022539218, No Iterations 2
GAMG:  Solving for p, Initial residual = 0.00188310703022, Final residual = 0.000124724577541, No Iterations 3
time step continuity errors : sum local = 1.65401238477e-06, global = 4.74002235026e-08, cumulative = 2.45303691128e-06
smoothSolver:  Solving for omega, Initial residual = 0.00252732050984, Final residual = 0.000202250071325, No Iterations 2
smoothSolver:  Solving for k, Initial residual = 0.00476644148507, Final residual = 0.000356945058425, No Iterations 2
ExecutionTime = 32.933 s  ClockTime = 32 s

Time = 46

========== Flavio's Actuator Surface Model (2023) ==============
(scalar) Horizontal Force: 14.22224 N
(scalar) Vertical Force: 0 N
Momentum Source (Thrust, Vertical Force, Horizontal Force): (14.22224 0 0) N
================================================================
smoothSolver:  Solving for Ux, Initial residual = 0.00161490230429, Final residual = 0.000136853763112, No Iterations 2
smoothSolver:  Solving for Uy, Initial residual = 0.00811084668416, Final residual = 0.00068646911339, No Iterations 2
smoothSolver:  Solving for Uz, Initial residual = 0.0157133187652, Final residual = 0.00139197644504, No Iterations 2
GAMG:  Solving for p, Initial residual = 0.0277507983383, Final residual = 0.00165123789975, No Iterations 2
GAMG:  Solving for p, Initial residual = 0.0018737954511, Final residual = 0.00012026294831, No Iterations 3
time step continuity errors : sum local = 1.60346474284e-06, global = 5.7743626616e-08, cumulative = 2.5107805379e-06
smoothSolver:  Solving for omega, Initial residual = 0.00247087649699, Final residual = 0.000199741791299, No Iterations 2
smoothSolver:  Solving for k, Initial residual = 0.00468464006391, Final residual = 0.000354297026478, No Iterations 2
ExecutionTime = 33.356 s  ClockTime = 33 s

Time = 47

========== Flavio's Actuator Surface Model (2023) ==============
(scalar) Horizontal Force: 14.22224 N
(scalar) Vertical Force: 0 N
Momentum Source (Thrust, Vertical Force, Horizontal Force): (14.22224 0 0) N
================================================================
smoothSolver:  Solving for Ux, Initial residual = 0.00158533842447, Final residual = 0.000134414007174, No Iterations 2
smoothSolver:  Solving for Uy, Initial residual = 0.00788482115774, Final residual = 0.000666383206369, No Iterations 2
smoothSolver:  Solving for Uz, Initial residual = 0.0155141116252, Final residual = 0.00137598814177, No Iterations 2
GAMG:  Solving for p, Initial residual = 0.0270411719117, Final residual = 0.00163803368918, No Iterations 2
GAMG:  Solving for p, Initial residual = 0.0018587955742, Final residual = 0.000117356338095, No Iterations 3
time step continuity errors : sum local = 1.57270976736e-06, global = 6.81216619121e-08, cumulative = 2.57890219981e-06
smoothSolver:  Solving for omega, Initial residual = 0.00242033441928, Final residual = 0.000196749057573, No Iterations 2
smoothSolver:  Solving for k, Initial residual = 0.0046137001689, Final residual = 0.000351406674976, No Iterations 2
ExecutionTime = 33.77 s  ClockTime = 33 s

Time = 48

========== Flavio's Actuator Surface Model (2023) ==============
(scalar) Horizontal Force: 14.22224 N
(scalar) Vertical Force: 0 N
Momentum Source (Thrust, Vertical Force, Horizontal Force): (14.22224 0 0) N
================================================================
smoothSolver:  Solving for Ux, Initial residual = 0.00155626127193, Final residual = 0.000131788074781, No Iterations 2
smoothSolver:  Solving for Uy, Initial residual = 0.00766205078766, Final residual = 0.00064622793517, No Iterations 2
smoothSolver:  Solving for Uz, Initial residual = 0.0153221225471, Final residual = 0.0013592452261, No Iterations 2
GAMG:  Solving for p, Initial residual = 0.026360294043, Final residual = 0.00162987081962, No Iterations 2
GAMG:  Solving for p, Initial residual = 0.00184853705492, Final residual = 0.000116798054313, No Iterations 3
time step continuity errors : sum local = 1.57295275822e-06, global = 7.25895989218e-08, cumulative = 2.65149179873e-06
smoothSolver:  Solving for omega, Initial residual = 0.00237423292097, Final residual = 0.000193523032864, No Iterations 2
smoothSolver:  Solving for k, Initial residual = 0.00455184638677, Final residual = 0.000348330107005, No Iterations 2
ExecutionTime = 34.196 s  ClockTime = 34 s

Time = 49

========== Flavio's Actuator Surface Model (2023) ==============
(scalar) Horizontal Force: 14.22224 N
(scalar) Vertical Force: 0 N
Momentum Source (Thrust, Vertical Force, Horizontal Force): (14.22224 0 0) N
================================================================
smoothSolver:  Solving for Ux, Initial residual = 0.00152812666818, Final residual = 0.000129030200719, No Iterations 2
smoothSolver:  Solving for Uy, Initial residual = 0.00744477212253, Final residual = 0.000625903587922, No Iterations 2
smoothSolver:  Solving for Uz, Initial residual = 0.0151403331183, Final residual = 0.00134258625611, No Iterations 2
GAMG:  Solving for p, Initial residual = 0.0256631470873, Final residual = 0.00160742297865, No Iterations 2
GAMG:  Solving for p, Initial residual = 0.00182219479234, Final residual = 0.000112170709539, No Iterations 3
time step continuity errors : sum local = 1.51749713618e-06, global = 7.69832238716e-08, cumulative = 2.72847502261e-06
smoothSolver:  Solving for omega, Initial residual = 0.00233189543948, Final residual = 0.000190272977482, No Iterations 2
smoothSolver:  Solving for k, Initial residual = 0.00449844381543, Final residual = 0.000346433868079, No Iterations 2
ExecutionTime = 34.642 s  ClockTime = 34 s

Time = 50

========== Flavio's Actuator Surface Model (2023) ==============
(scalar) Horizontal Force: 14.22224 N
(scalar) Vertical Force: 0 N
Momentum Source (Thrust, Vertical Force, Horizontal Force): (14.22224 0 0) N
================================================================
smoothSolver:  Solving for Ux, Initial residual = 0.00150064011404, Final residual = 0.000126226941992, No Iterations 2
smoothSolver:  Solving for Uy, Initial residual = 0.00723294635092, Final residual = 0.000606003409239, No Iterations 2
smoothSolver:  Solving for Uz, Initial residual = 0.0149662804279, Final residual = 0.00132588732747, No Iterations 2
GAMG:  Solving for p, Initial residual = 0.024982892867, Final residual = 0.00158060594718, No Iterations 2
GAMG:  Solving for p, Initial residual = 0.00179157848244, Final residual = 0.000105985571083, No Iterations 3
time step continuity errors : sum local = 1.43991070386e-06, global = 8.28596098541e-08, cumulative = 2.81133463246e-06
smoothSolver:  Solving for omega, Initial residual = 0.0022935235621, Final residual = 0.00018718172715, No Iterations 2
smoothSolver:  Solving for k, Initial residual = 0.00445424526126, Final residual = 0.000345001940768, No Iterations 2
ExecutionTime = 35.974 s  ClockTime = 36 s

Time = 51

========== Flavio's Actuator Surface Model (2023) ==============
(scalar) Horizontal Force: 14.22224 N
(scalar) Vertical Force: 0 N
Momentum Source (Thrust, Vertical Force, Horizontal Force): (14.22224 0 0) N
================================================================
smoothSolver:  Solving for Ux, Initial residual = 0.00147415575878, Final residual = 0.000123502825379, No Iterations 2
smoothSolver:  Solving for Uy, Initial residual = 0.00702807667688, Final residual = 0.000586578101065, No Iterations 2
smoothSolver:  Solving for Uz, Initial residual = 0.0147977947968, Final residual = 0.00130924770505, No Iterations 2
GAMG:  Solving for p, Initial residual = 0.0243474892579, Final residual = 0.00153857347082, No Iterations 2
GAMG:  Solving for p, Initial residual = 0.00174674313905, Final residual = 9.73706524531e-05, No Iterations 3
time step continuity errors : sum local = 1.3279596417e-06, global = 8.65878292974e-08, cumulative = 2.89792246176e-06
smoothSolver:  Solving for omega, Initial residual = 0.00225825724296, Final residual = 0.000184024364634, No Iterations 2
smoothSolver:  Solving for k, Initial residual = 0.00442059307749, Final residual = 0.000344182656, No Iterations 2
ExecutionTime = 39.063 s  ClockTime = 39 s

Time = 52

========== Flavio's Actuator Surface Model (2023) ==============
(scalar) Horizontal Force: 14.22224 N
(scalar) Vertical Force: 0 N
Momentum Source (Thrust, Vertical Force, Horizontal Force): (14.22224 0 0) N
================================================================
smoothSolver:  Solving for Ux, Initial residual = 0.00144877766051, Final residual = 0.000121009840845, No Iterations 2
smoothSolver:  Solving for Uy, Initial residual = 0.00683184857886, Final residual = 0.000568122181891, No Iterations 2
smoothSolver:  Solving for Uz, Initial residual = 0.0146413131902, Final residual = 0.0012930952134, No Iterations 2
GAMG:  Solving for p, Initial residual = 0.0237423375143, Final residual = 0.00150738601575, No Iterations 2
GAMG:  Solving for p, Initial residual = 0.0017135484838, Final residual = 9.24153087979e-05, No Iterations 3
time step continuity errors : sum local = 1.2648571981e-06, global = 8.76595385922e-08, cumulative = 2.98558200035e-06
smoothSolver:  Solving for omega, Initial residual = 0.00222585211473, Final residual = 0.000180935261975, No Iterations 2
smoothSolver:  Solving for k, Initial residual = 0.004395028791, Final residual = 0.000343748424021, No Iterations 2
ExecutionTime = 39.56 s  ClockTime = 39 s

Time = 53

========== Flavio's Actuator Surface Model (2023) ==============
(scalar) Horizontal Force: 14.22224 N
(scalar) Vertical Force: 0 N
Momentum Source (Thrust, Vertical Force, Horizontal Force): (14.22224 0 0) N
================================================================
smoothSolver:  Solving for Ux, Initial residual = 0.00142489596421, Final residual = 0.000118781058557, No Iterations 2
smoothSolver:  Solving for Uy, Initial residual = 0.00664168799056, Final residual = 0.00055064096485, No Iterations 2
smoothSolver:  Solving for Uz, Initial residual = 0.0145036789932, Final residual = 0.00127733894391, No Iterations 2
GAMG:  Solving for p, Initial residual = 0.0231774777838, Final residual = 0.00147676951922, No Iterations 2
GAMG:  Solving for p, Initial residual = 0.00168065250395, Final residual = 8.87971710607e-05, No Iterations 3
time step continuity errors : sum local = 1.21917088748e-06, global = 8.80503880543e-08, cumulative = 3.0736323884e-06
smoothSolver:  Solving for omega, Initial residual = 0.00219541317538, Final residual = 0.000177975636023, No Iterations 2
smoothSolver:  Solving for k, Initial residual = 0.00437457810385, Final residual = 0.000343266615724, No Iterations 2
ExecutionTime = 39.998 s  ClockTime = 40 s

Time = 54

========== Flavio's Actuator Surface Model (2023) ==============
(scalar) Horizontal Force: 14.22224 N
(scalar) Vertical Force: 0 N
Momentum Source (Thrust, Vertical Force, Horizontal Force): (14.22224 0 0) N
================================================================
smoothSolver:  Solving for Ux, Initial residual = 0.00140216133909, Final residual = 0.000116828621554, No Iterations 2
smoothSolver:  Solving for Uy, Initial residual = 0.00645900838079, Final residual = 0.000534319233997, No Iterations 2
smoothSolver:  Solving for Uz, Initial residual = 0.0143860571196, Final residual = 0.00126337913495, No Iterations 2
GAMG:  Solving for p, Initial residual = 0.0226271592067, Final residual = 0.00144859509523, No Iterations 2
GAMG:  Solving for p, Initial residual = 0.00165122707025, Final residual = 8.63508096407e-05, No Iterations 3
time step continuity errors : sum local = 1.18874031386e-06, global = 8.76374431269e-08, cumulative = 3.16126983153e-06
smoothSolver:  Solving for omega, Initial residual = 0.00216734967168, Final residual = 0.000175316553618, No Iterations 2
smoothSolver:  Solving for k, Initial residual = 0.00435883796237, Final residual = 0.000342529800768, No Iterations 2
ExecutionTime = 40.432 s  ClockTime = 40 s

Time = 55

========== Flavio's Actuator Surface Model (2023) ==============
(scalar) Horizontal Force: 14.22224 N
(scalar) Vertical Force: 0 N
Momentum Source (Thrust, Vertical Force, Horizontal Force): (14.22224 0 0) N
================================================================
smoothSolver:  Solving for Ux, Initial residual = 0.00138047586339, Final residual = 0.000115060315004, No Iterations 2
smoothSolver:  Solving for Uy, Initial residual = 0.00628148768052, Final residual = 0.000518978175276, No Iterations 2
smoothSolver:  Solving for Uz, Initial residual = 0.0142857187109, Final residual = 0.00125169009311, No Iterations 2
GAMG:  Solving for p, Initial residual = 0.0221326751179, Final residual = 0.00142404703311, No Iterations 2
GAMG:  Solving for p, Initial residual = 0.00162712912647, Final residual = 8.48661038593e-05, No Iterations 3
time step continuity errors : sum local = 1.17094526896e-06, global = 8.623196087e-08, cumulative = 3.2475017924e-06
smoothSolver:  Solving for omega, Initial residual = 0.00214086901785, Final residual = 0.000172891387606, No Iterations 2
smoothSolver:  Solving for k, Initial residual = 0.00434674160714, Final residual = 0.000341297863818, No Iterations 2
ExecutionTime = 40.857 s  ClockTime = 40 s

Time = 56

========== Flavio's Actuator Surface Model (2023) ==============
(scalar) Horizontal Force: 14.22224 N
(scalar) Vertical Force: 0 N
Momentum Source (Thrust, Vertical Force, Horizontal Force): (14.22224 0 0) N
================================================================
smoothSolver:  Solving for Ux, Initial residual = 0.0013595299381, Final residual = 0.000113480731745, No Iterations 2
smoothSolver:  Solving for Uy, Initial residual = 0.00610924276931, Final residual = 0.000504363043446, No Iterations 2
smoothSolver:  Solving for Uz, Initial residual = 0.0142008758441, Final residual = 0.00124201896715, No Iterations 2
GAMG:  Solving for p, Initial residual = 0.0216647798026, Final residual = 0.00140182959511, No Iterations 2
GAMG:  Solving for p, Initial residual = 0.00160667807066, Final residual = 8.44001538619e-05, No Iterations 3
time step continuity errors : sum local = 1.16658696045e-06, global = 8.38224826909e-08, cumulative = 3.33132427509e-06
smoothSolver:  Solving for omega, Initial residual = 0.00211450066068, Final residual = 0.000170538519385, No Iterations 2
smoothSolver:  Solving for k, Initial residual = 0.00432666549874, Final residual = 0.000339074493959, No Iterations 2
ExecutionTime = 41.303 s  ClockTime = 41 s

Time = 57

========== Flavio's Actuator Surface Model (2023) ==============
(scalar) Horizontal Force: 14.22224 N
(scalar) Vertical Force: 0 N
Momentum Source (Thrust, Vertical Force, Horizontal Force): (14.22224 0 0) N
================================================================
smoothSolver:  Solving for Ux, Initial residual = 0.00133925517959, Final residual = 0.000112183914743, No Iterations 2
smoothSolver:  Solving for Uy, Initial residual = 0.00594127842464, Final residual = 0.000490872019197, No Iterations 2
smoothSolver:  Solving for Uz, Initial residual = 0.0141293695274, Final residual = 0.001234180571, No Iterations 2
GAMG:  Solving for p, Initial residual = 0.0212254387575, Final residual = 0.0013903153237, No Iterations 2
GAMG:  Solving for p, Initial residual = 0.00159820383188, Final residual = 8.73416059752e-05, No Iterations 3
time step continuity errors : sum local = 1.20893110109e-06, global = 7.90020678263e-08, cumulative = 3.41032634292e-06
smoothSolver:  Solving for omega, Initial residual = 0.00208431065506, Final residual = 0.00016802484045, No Iterations 2
smoothSolver:  Solving for k, Initial residual = 0.00428386621509, Final residual = 0.000334458283036, No Iterations 2
ExecutionTime = 41.746 s  ClockTime = 41 s

Time = 58

========== Flavio's Actuator Surface Model (2023) ==============
(scalar) Horizontal Force: 14.22224 N
(scalar) Vertical Force: 0 N
Momentum Source (Thrust, Vertical Force, Horizontal Force): (14.22224 0 0) N
================================================================
smoothSolver:  Solving for Ux, Initial residual = 0.00131974783479, Final residual = 0.000111124567054, No Iterations 2
smoothSolver:  Solving for Uy, Initial residual = 0.00577878660732, Final residual = 0.000478267061604, No Iterations 2
smoothSolver:  Solving for Uz, Initial residual = 0.0140638154129, Final residual = 0.00122873336106, No Iterations 2
GAMG:  Solving for p, Initial residual = 0.0208032899493, Final residual = 0.00137444289596, No Iterations 2
GAMG:  Solving for p, Initial residual = 0.00158561051323, Final residual = 8.81351586255e-05, No Iterations 3
time step continuity errors : sum local = 1.22117948347e-06, global = 7.68460070179e-08, cumulative = 3.48717234994e-06
smoothSolver:  Solving for omega, Initial residual = 0.00204870369573, Final residual = 0.000165206329158, No Iterations 2
smoothSolver:  Solving for k, Initial residual = 0.00422540653669, Final residual = 0.000328636415259, No Iterations 2
ExecutionTime = 42.199 s  ClockTime = 42 s

Time = 59

========== Flavio's Actuator Surface Model (2023) ==============
(scalar) Horizontal Force: 14.22224 N
(scalar) Vertical Force: 0 N
Momentum Source (Thrust, Vertical Force, Horizontal Force): (14.22224 0 0) N
================================================================
smoothSolver:  Solving for Ux, Initial residual = 0.00130109314141, Final residual = 0.000110252075162, No Iterations 2
smoothSolver:  Solving for Uy, Initial residual = 0.00562389954293, Final residual = 0.000466426636337, No Iterations 2
smoothSolver:  Solving for Uz, Initial residual = 0.0139978965408, Final residual = 0.00122405073505, No Iterations 2
GAMG:  Solving for p, Initial residual = 0.020363640742, Final residual = 0.00136062204303, No Iterations 2
GAMG:  Solving for p, Initial residual = 0.00157518519114, Final residual = 8.8934407049e-05, No Iterations 3
time step continuity errors : sum local = 1.2330918077e-06, global = 7.45609420832e-08, cumulative = 3.56173329202e-06
smoothSolver:  Solving for omega, Initial residual = 0.00201086746284, Final residual = 0.000162483870457, No Iterations 2
smoothSolver:  Solving for k, Initial residual = 0.00416280094967, Final residual = 0.000323057663787, No Iterations 2
ExecutionTime = 42.626 s  ClockTime = 42 s

Time = 60

========== Flavio's Actuator Surface Model (2023) ==============
(scalar) Horizontal Force: 14.22224 N
(scalar) Vertical Force: 0 N
Momentum Source (Thrust, Vertical Force, Horizontal Force): (14.22224 0 0) N
================================================================
smoothSolver:  Solving for Ux, Initial residual = 0.00128317914447, Final residual = 0.000109504689782, No Iterations 2
smoothSolver:  Solving for Uy, Initial residual = 0.00547571760838, Final residual = 0.000455829955645, No Iterations 2
smoothSolver:  Solving for Uz, Initial residual = 0.0139232599695, Final residual = 0.00121920619189, No Iterations 2
GAMG:  Solving for p, Initial residual = 0.0199312235333, Final residual = 0.00134875310131, No Iterations 2
[...]
GAMG:  Solving for p, Initial residual = 1.34392476446e-05, Final residual = 8.17978045605e-07, No Iterations 2
GAMG:  Solving for p, Initial residual = 9.9954350482e-07, Final residual = 9.9954350482e-07, No Iterations 0
time step continuity errors : sum local = 1.00550144256e-08, global = -1.23104929283e-09, cumulative = 4.97084849046e-06
smoothSolver:  Solving for omega, Initial residual = 6.23390152131e-07, Final residual = 5.50877261791e-08, No Iterations 2
smoothSolver:  Solving for k, Initial residual = 2.2439024711e-06, Final residual = 2.03999613194e-07, No Iterations 2
ExecutionTime = 216.069 s  ClockTime = 216 s

Time = 415

========== Flavio's Actuator Surface Model (2023) ==============
(scalar) Horizontal Force: 14.22224 N
(scalar) Vertical Force: 0 N
Momentum Source (Thrust, Vertical Force, Horizontal Force): (14.22224 0 0) N
================================================================
smoothSolver:  Solving for Ux, Initial residual = 1.38021329673e-06, Final residual = 1.09223046512e-07, No Iterations 2
smoothSolver:  Solving for Uy, Initial residual = 3.63210809525e-06, Final residual = 1.63774708139e-07, No Iterations 2
smoothSolver:  Solving for Uz, Initial residual = 1.41958391483e-05, Final residual = 7.474399535e-07, No Iterations 2
GAMG:  Solving for p, Initial residual = 1.32047576359e-05, Final residual = 8.19188658857e-07, No Iterations 2
GAMG:  Solving for p, Initial residual = 1.00034477505e-06, Final residual = 2.5742996259e-07, No Iterations 1
time step continuity errors : sum local = 2.58957445363e-09, global = -2.97689161922e-10, cumulative = 4.97055080129e-06
smoothSolver:  Solving for omega, Initial residual = 6.07365655354e-07, Final residual = 5.36717681718e-08, No Iterations 2
smoothSolver:  Solving for k, Initial residual = 2.18626305707e-06, Final residual = 1.98757065803e-07, No Iterations 2
ExecutionTime = 216.474 s  ClockTime = 216 s

Time = 416

========== Flavio's Actuator Surface Model (2023) ==============
(scalar) Horizontal Force: 14.22224 N
(scalar) Vertical Force: 0 N
Momentum Source (Thrust, Vertical Force, Horizontal Force): (14.22224 0 0) N
================================================================
smoothSolver:  Solving for Ux, Initial residual = 1.34581543466e-06, Final residual = 1.06425773044e-07, No Iterations 2
smoothSolver:  Solving for Uy, Initial residual = 3.54920892512e-06, Final residual = 1.59921315137e-07, No Iterations 2
smoothSolver:  Solving for Uz, Initial residual = 1.39153529246e-05, Final residual = 7.29742138345e-07, No Iterations 2
GAMG:  Solving for p, Initial residual = 1.28315187091e-05, Final residual = 7.89016307722e-07, No Iterations 2
GAMG:  Solving for p, Initial residual = 9.63837095933e-07, Final residual = 9.63837095933e-07, No Iterations 0
time step continuity errors : sum local = 9.69531532965e-09, global = -1.1706796931e-09, cumulative = 4.9693801216e-06
smoothSolver:  Solving for omega, Initial residual = 5.91716216322e-07, Final residual = 5.22880278366e-08, No Iterations 2
smoothSolver:  Solving for k, Initial residual = 2.13006910828e-06, Final residual = 1.93646827923e-07, No Iterations 2
ExecutionTime = 216.849 s  ClockTime = 216 s

Time = 417

========== Flavio's Actuator Surface Model (2023) ==============
(scalar) Horizontal Force: 14.22224 N
(scalar) Vertical Force: 0 N
Momentum Source (Thrust, Vertical Force, Horizontal Force): (14.22224 0 0) N
================================================================
smoothSolver:  Solving for Ux, Initial residual = 1.31106113415e-06, Final residual = 1.03696505787e-07, No Iterations 2
smoothSolver:  Solving for Uy, Initial residual = 3.45713675431e-06, Final residual = 1.55763659794e-07, No Iterations 2
smoothSolver:  Solving for Uz, Initial residual = 1.35454002535e-05, Final residual = 7.10755064341e-07, No Iterations 2
GAMG:  Solving for p, Initial residual = 1.25629877475e-05, Final residual = 7.81266395414e-07, No Iterations 2
GAMG:  Solving for p, Initial residual = 9.53327621547e-07, Final residual = 9.53327621547e-07, No Iterations 0
time step continuity errors : sum local = 9.58935973874e-09, global = -1.14676897284e-09, cumulative = 4.96823335263e-06
smoothSolver:  Solving for omega, Initial residual = 5.76496393299e-07, Final residual = 5.09425715802e-08, No Iterations 2
smoothSolver:  Solving for k, Initial residual = 2.07534220282e-06, Final residual = 1.88669619244e-07, No Iterations 2
ExecutionTime = 217.239 s  ClockTime = 217 s

Time = 418

========== Flavio's Actuator Surface Model (2023) ==============
(scalar) Horizontal Force: 14.22224 N
(scalar) Vertical Force: 0 N
Momentum Source (Thrust, Vertical Force, Horizontal Force): (14.22224 0 0) N
================================================================
smoothSolver:  Solving for Ux, Initial residual = 1.27746058903e-06, Final residual = 1.0104113758e-07, No Iterations 2
smoothSolver:  Solving for Uy, Initial residual = 3.36917040045e-06, Final residual = 1.51800658931e-07, No Iterations 2
smoothSolver:  Solving for Uz, Initial residual = 1.3200248283e-05, Final residual = 6.92651888778e-07, No Iterations 2
GAMG:  Solving for p, Initial residual = 1.22970479969e-05, Final residual = 7.70339709483e-07, No Iterations 2
GAMG:  Solving for p, Initial residual = 9.39165638523e-07, Final residual = 9.39165638523e-07, No Iterations 0
time step continuity errors : sum local = 9.44667747044e-09, global = -1.12074066735e-09, cumulative = 4.96711261196e-06
smoothSolver:  Solving for omega, Initial residual = 5.61663387435e-07, Final residual = 4.96314804162e-08, No Iterations 2
smoothSolver:  Solving for k, Initial residual = 2.02201475104e-06, Final residual = 1.83819812196e-07, No Iterations 2
ExecutionTime = 217.671 s  ClockTime = 217 s

Time = 419

========== Flavio's Actuator Surface Model (2023) ==============
(scalar) Horizontal Force: 14.22224 N
(scalar) Vertical Force: 0 N
Momentum Source (Thrust, Vertical Force, Horizontal Force): (14.22224 0 0) N
================================================================
smoothSolver:  Solving for Ux, Initial residual = 1.24483102838e-06, Final residual = 9.84524978871e-08, No Iterations 2
smoothSolver:  Solving for Uy, Initial residual = 3.28451095476e-06, Final residual = 1.47974378819e-07, No Iterations 2
smoothSolver:  Solving for Uz, Initial residual = 1.28746895988e-05, Final residual = 6.75190605226e-07, No Iterations 2
GAMG:  Solving for p, Initial residual = 1.20234209053e-05, Final residual = 7.56410772452e-07, No Iterations 2
GAMG:  Solving for p, Initial residual = 9.21524253191e-07, Final residual = 9.21524253191e-07, No Iterations 0
time step continuity errors : sum local = 9.26901175318e-09, global = -1.09402513814e-09, cumulative = 4.96601858682e-06
smoothSolver:  Solving for omega, Initial residual = 5.47212722554e-07, Final residual = 4.83542148657e-08, No Iterations 2
smoothSolver:  Solving for k, Initial residual = 1.97005567492e-06, Final residual = 1.79094561838e-07, No Iterations 2
ExecutionTime = 218.129 s  ClockTime = 218 s

Time = 420

========== Flavio's Actuator Surface Model (2023) ==============
(scalar) Horizontal Force: 14.22224 N
(scalar) Vertical Force: 0 N
Momentum Source (Thrust, Vertical Force, Horizontal Force): (14.22224 0 0) N
================================================================
smoothSolver:  Solving for Ux, Initial residual = 1.21306903558e-06, Final residual = 9.59294773834e-08, No Iterations 2
smoothSolver:  Solving for Uy, Initial residual = 3.20246054668e-06, Final residual = 1.44258769235e-07, No Iterations 2
smoothSolver:  Solving for Uz, Initial residual = 1.25631020095e-05, Final residual = 6.5826071152e-07, No Iterations 2
GAMG:  Solving for p, Initial residual = 1.17409972455e-05, Final residual = 7.39787681637e-07, No Iterations 2
GAMG:  Solving for p, Initial residual = 9.00751488149e-07, Final residual = 9.00751488149e-07, No Iterations 0
time step continuity errors : sum local = 9.05986525056e-09, global = -1.0672938625e-09, cumulative = 4.96495129296e-06
smoothSolver:  Solving for omega, Initial residual = 5.3313448302e-07, Final residual = 4.71098731395e-08, No Iterations 2
smoothSolver:  Solving for k, Initial residual = 1.91942985199e-06, Final residual = 1.74490673567e-07, No Iterations 2
ExecutionTime = 218.502 s  ClockTime = 218 s

Time = 421

========== Flavio's Actuator Surface Model (2023) ==============
(scalar) Horizontal Force: 14.22224 N
(scalar) Vertical Force: 0 N
Momentum Source (Thrust, Vertical Force, Horizontal Force): (14.22224 0 0) N
================================================================
smoothSolver:  Solving for Ux, Initial residual = 1.18210284122e-06, Final residual = 9.34706473156e-08, No Iterations 2
smoothSolver:  Solving for Uy, Initial residual = 3.12238486052e-06, Final residual = 1.40631694486e-07, No Iterations 2
smoothSolver:  Solving for Uz, Initial residual = 1.22600179797e-05, Final residual = 6.4176341866e-07, No Iterations 2
GAMG:  Solving for p, Initial residual = 1.14538426403e-05, Final residual = 7.2119536615e-07, No Iterations 2
GAMG:  Solving for p, Initial residual = 8.7774366911e-07, Final residual = 8.7774366911e-07, No Iterations 0
time step continuity errors : sum local = 8.82825454741e-09, global = -1.04108877017e-09, cumulative = 4.96391020419e-06
smoothSolver:  Solving for omega, Initial residual = 5.19418683325e-07, Final residual = 4.58975680591e-08, No Iterations 2
smoothSolver:  Solving for k, Initial residual = 1.87010293511e-06, Final residual = 1.70005014446e-07, No Iterations 2
ExecutionTime = 218.942 s  ClockTime = 218 s

Time = 422

========== Flavio's Actuator Surface Model (2023) ==============
(scalar) Horizontal Force: 14.22224 N
(scalar) Vertical Force: 0 N
Momentum Source (Thrust, Vertical Force, Horizontal Force): (14.22224 0 0) N
================================================================
smoothSolver:  Solving for Ux, Initial residual = 1.1518882565e-06, Final residual = 9.10744524899e-08, No Iterations 2
smoothSolver:  Solving for Uy, Initial residual = 3.04385088827e-06, Final residual = 1.37077924956e-07, No Iterations 2
smoothSolver:  Solving for Uz, Initial residual = 1.19613378947e-05, Final residual = 6.25624543711e-07, No Iterations 2
GAMG:  Solving for p, Initial residual = 1.11669161275e-05, Final residual = 7.01549757819e-07, No Iterations 2
GAMG:  Solving for p, Initial residual = 8.5362723219e-07, Final residual = 8.5362723219e-07, No Iterations 0
time step continuity errors : sum local = 8.58550949599e-09, global = -1.01563356756e-09, cumulative = 4.96289457062e-06
smoothSolver:  Solving for omega, Initial residual = 5.06055638896e-07, Final residual = 4.47164473627e-08, No Iterations 2
smoothSolver:  Solving for k, Initial residual = 1.82204152771e-06, Final residual = 1.65634543614e-07, No Iterations 2
ExecutionTime = 219.386 s  ClockTime = 219 s

Time = 423

========== Flavio's Actuator Surface Model (2023) ==============
(scalar) Horizontal Force: 14.22224 N
(scalar) Vertical Force: 0 N
Momentum Source (Thrust, Vertical Force, Horizontal Force): (14.22224 0 0) N
================================================================
smoothSolver:  Solving for Ux, Initial residual = 1.1224007555e-06, Final residual = 8.87393007175e-08, No Iterations 2
smoothSolver:  Solving for Uy, Initial residual = 2.96667046494e-06, Final residual = 1.3359062572e-07, No Iterations 2
smoothSolver:  Solving for Uz, Initial residual = 1.16648464084e-05, Final residual = 6.09799939227e-07, No Iterations 2
GAMG:  Solving for p, Initial residual = 1.08839591735e-05, Final residual = 6.81738630485e-07, No Iterations 2
GAMG:  Solving for p, Initial residual = 8.29471961669e-07, Final residual = 8.29471961669e-07, No Iterations 0
time step continuity errors : sum local = 8.34238914678e-09, global = -9.91019318481e-10, cumulative = 4.9619035513e-06
smoothSolver:  Solving for omega, Initial residual = 4.93036552365e-07, Final residual = 4.35657244155e-08, No Iterations 2
smoothSolver:  Solving for k, Initial residual = 1.77521319701e-06, Final residual = 1.61376330585e-07, No Iterations 2
ExecutionTime = 219.786 s  ClockTime = 219 s

Time = 424

========== Flavio's Actuator Surface Model (2023) ==============
(scalar) Horizontal Force: 14.22224 N
(scalar) Vertical Force: 0 N
Momentum Source (Thrust, Vertical Force, Horizontal Force): (14.22224 0 0) N
================================================================
smoothSolver:  Solving for Ux, Initial residual = 1.09362901071e-06, Final residual = 8.64636347367e-08, No Iterations 2
smoothSolver:  Solving for Uy, Initial residual = 2.89086177107e-06, Final residual = 1.30170007445e-07, No Iterations 2
smoothSolver:  Solving for Uz, Initial residual = 1.13701331545e-05, Final residual = 5.94274530936e-07, No Iterations 2
GAMG:  Solving for p, Initial residual = 1.06073283971e-05, Final residual = 6.62478746139e-07, No Iterations 2
GAMG:  Solving for p, Initial residual = 8.06113192704e-07, Final residual = 8.06113192704e-07, No Iterations 0
time step continuity errors : sum local = 8.10729383833e-09, global = -9.67250159304e-10, cumulative = 4.96093630114e-06
smoothSolver:  Solving for omega, Initial residual = 4.80351875053e-07, Final residual = 4.24445989052e-08, No Iterations 2
smoothSolver:  Solving for k, Initial residual = 1.72958645793e-06, Final residual = 1.57227476443e-07, No Iterations 2
ExecutionTime = 220.164 s  ClockTime = 220 s

Time = 425

========== Flavio's Actuator Surface Model (2023) ==============
(scalar) Horizontal Force: 14.22224 N
(scalar) Vertical Force: 0 N
Momentum Source (Thrust, Vertical Force, Horizontal Force): (14.22224 0 0) N
================================================================
smoothSolver:  Solving for Ux, Initial residual = 1.06556860733e-06, Final residual = 8.42459726898e-08, No Iterations 2
smoothSolver:  Solving for Uy, Initial residual = 2.8165694394e-06, Final residual = 1.26820842571e-07, No Iterations 2
smoothSolver:  Solving for Uz, Initial residual = 1.1078122196e-05, Final residual = 5.79055874771e-07, No Iterations 2
GAMG:  Solving for p, Initial residual = 1.03381273108e-05, Final residual = 6.44228844893e-07, No Iterations 2
GAMG:  Solving for p, Initial residual = 7.84050897283e-07, Final residual = 7.84050897283e-07, No Iterations 0
time step continuity errors : sum local = 7.8852506483e-09, global = -9.44244399695e-10, cumulative = 4.95999205674e-06
smoothSolver:  Solving for omega, Initial residual = 4.6799307009e-07, Final residual = 4.13523045728e-08, No Iterations 2
smoothSolver:  Solving for k, Initial residual = 1.68513072358e-06, Final residual = 1.53185185367e-07, No Iterations 2
ExecutionTime = 220.562 s  ClockTime = 220 s

Time = 426

========== Flavio's Actuator Surface Model (2023) ==============
(scalar) Horizontal Force: 14.22224 N
(scalar) Vertical Force: 0 N
Momentum Source (Thrust, Vertical Force, Horizontal Force): (14.22224 0 0) N
================================================================
smoothSolver:  Solving for Ux, Initial residual = 1.03821632103e-06, Final residual = 8.2084911361e-08, No Iterations 2
smoothSolver:  Solving for Uy, Initial residual = 2.74397824552e-06, Final residual = 1.23549645057e-07, No Iterations 2
smoothSolver:  Solving for Uz, Initial residual = 1.07904432794e-05, Final residual = 5.64164613535e-07, No Iterations 2
GAMG:  Solving for p, Initial residual = 1.00766259775e-05, Final residual = 6.27168475964e-07, No Iterations 2
GAMG:  Solving for p, Initial residual = 7.63449093765e-07, Final residual = 7.63449093765e-07, No Iterations 0
time step continuity errors : sum local = 7.67790781405e-09, global = -9.21846016448e-10, cumulative = 4.95907021073e-06
smoothSolver:  Solving for omega, Initial residual = 4.55951933112e-07, Final residual = 4.02881048919e-08, No Iterations 2
smoothSolver:  Solving for k, Initial residual = 1.64181624472e-06, Final residual = 1.49246745364e-07, No Iterations 2
ExecutionTime = 220.95 s  ClockTime = 221 s

Time = 427

========== Flavio's Actuator Surface Model (2023) ==============
(scalar) Horizontal Force: 14.22224 N
(scalar) Vertical Force: 0 N
Momentum Source (Thrust, Vertical Force, Horizontal Force): (14.22224 0 0) N
================================================================
smoothSolver:  Solving for Ux, Initial residual = 1.01156612583e-06, Final residual = 7.99791044852e-08, No Iterations 2
smoothSolver:  Solving for Uy, Initial residual = 2.67324488206e-06, Final residual = 1.20362252827e-07, No Iterations 2
smoothSolver:  Solving for Uz, Initial residual = 1.05088386894e-05, Final residual = 5.49624785386e-07, No Iterations 2
GAMG:  Solving for p, Initial residual = 9.8228886298e-06, Final residual = 6.11249749258e-07, No Iterations 2
GAMG:  Solving for p, Initial residual = 7.44204363713e-07, Final residual = 7.44204363713e-07, No Iterations 0
time step continuity errors : sum local = 7.48422408833e-09, global = -8.99867863294e-10, cumulative = 4.95817034286e-06
smoothSolver:  Solving for omega, Initial residual = 4.44220465511e-07, Final residual = 3.92512914508e-08, No Iterations 2
smoothSolver:  Solving for k, Initial residual = 1.59961404584e-06, Final residual = 1.4540951834e-07, No Iterations 2
ExecutionTime = 221.374 s  ClockTime = 221 s

Time = 428

========== Flavio's Actuator Surface Model (2023) ==============
(scalar) Horizontal Force: 14.22224 N
(scalar) Vertical Force: 0 N
Momentum Source (Thrust, Vertical Force, Horizontal Force): (14.22224 0 0) N
================================================================
smoothSolver:  Solving for Ux, Initial residual = 9.85607427521e-07, Final residual = 7.79272420101e-08, No Iterations 2
smoothSolver:  Solving for Uy, Initial residual = 2.60445894857e-06, Final residual = 1.17262226351e-07, No Iterations 2
smoothSolver:  Solving for Uz, Initial residual = 1.0234726941e-05, Final residual = 5.35456187597e-07, No Iterations 2
GAMG:  Solving for p, Initial residual = 9.57648807554e-06, Final residual = 5.962784865e-07, No Iterations 2
GAMG:  Solving for p, Initial residual = 7.26052050805e-07, Final residual = 7.26052050805e-07, No Iterations 0
time step continuity errors : sum local = 7.30153690538e-09, global = -8.78146211381e-10, cumulative = 4.95729219665e-06
smoothSolver:  Solving for omega, Initial residual = 4.32790854971e-07, Final residual = 3.82411702537e-08, No Iterations 2
smoothSolver:  Solving for k, Initial residual = 1.55849587518e-06, Final residual = 1.41670930328e-07, No Iterations 2
ExecutionTime = 221.785 s  ClockTime = 221 s

Time = 429

========== Flavio's Actuator Surface Model (2023) ==============
(scalar) Horizontal Force: 14.22224 N
(scalar) Vertical Force: 0 N
Momentum Source (Thrust, Vertical Force, Horizontal Force): (14.22224 0 0) N
================================================================
smoothSolver:  Solving for Ux, Initial residual = 9.60325168644e-07, Final residual = 7.5928023188e-08, No Iterations 2
smoothSolver:  Solving for Uy, Initial residual = 2.53763251951e-06, Final residual = 1.14250223191e-07, No Iterations 2
smoothSolver:  Solving for Uz, Initial residual = 9.96896966202e-06, Final residual = 5.21669892469e-07, No Iterations 2
GAMG:  Solving for p, Initial residual = 9.33686819351e-06, Final residual = 5.81999375092e-07, No Iterations 2
GAMG:  Solving for p, Initial residual = 7.08674956302e-07, Final residual = 7.08674956302e-07, No Iterations 0
time step continuity errors : sum local = 7.12665556221e-09, global = -8.56580369705e-10, cumulative = 4.95643561628e-06
smoothSolver:  Solving for omega, Initial residual = 4.21655443626e-07, Final residual = 3.72570605921e-08, No Iterations 2
smoothSolver:  Solving for k, Initial residual = 1.51843415912e-06, Final residual = 1.38028468997e-07, No Iterations 2
ExecutionTime = 222.175 s  ClockTime = 222 s


SIMPLE solution converged in 429 iterations

End

Finalising parallel run
